# CIF file generated by openbabel 3.1.0, see https://openbabel.org
data_I
_chemical_name_common '1FC2.pdb'
_cell_length_a 70.6
_cell_length_b 70.6
_cell_length_c 147.4
_cell_angle_alpha 90
_cell_angle_beta 90
_cell_angle_gamma 120
_space_group_name_H-M_alt 'P 31 2 1'
_space_group_name_Hall 'P 31 2"'
loop_
    _symmetry_equiv_pos_as_xyz
    x,y,z
    -y,x-y,1/3+z
    -x+y,-x,2/3+z
    y,x,-z
    x-y,-y,2/3-z
    -x,-x+y,1/3-z
loop_
    _atom_site_label
    _atom_site_type_symbol
    _atom_site_fract_x
    _atom_site_fract_y
    _atom_site_fract_z
    _atom_site_occupancy
    N0       N        0.18577    0.51965    0.32199    1.000
    C1       C        0.19574    0.54351    0.32250    1.000
    C2       C        0.18951    0.55095    0.33111    1.000
    O3       O        0.17067    0.54003    0.33448    1.000
    C4       C        0.18950    0.55280    0.31429    1.000
    C5       C        0.20721    0.57643    0.31214    1.000
    C6       C        0.22435    0.58018    0.30655    1.000
    C7       C        0.20591    0.59377    0.31564    1.000
    C8       C        0.24038    0.60141    0.30437    1.000
    C9       C        0.22188    0.61508    0.31355    1.000
    C10      C        0.23917    0.61899    0.30788    1.000
    N11      N        0.20573    0.56950    0.33387    1.000
    C12      C        0.20859    0.58296    0.34178    1.000
    C13      C        0.23195    0.59143    0.34482    1.000
    O14      O        0.24146    0.58113    0.34250    1.000
    C15      C        0.19354    0.57045    0.34981    1.000
    C16      C        0.18799    0.58599    0.35477    1.000
    O17      O        0.18973    0.58747    0.36326    1.000
    N18      N        0.17478    0.59047    0.35012    1.000
    N19      N        0.24073    0.61062    0.34867    1.000
    C20      C        0.26315    0.62295    0.35188    1.000
    C21      C        0.27945    0.63507    0.34432    1.000
    O22      O        0.27396    0.63198    0.33613    1.000
    C23      C        0.26986    0.60844    0.35741    1.000
    C24      C        0.26644    0.60883    0.36771    1.000
    C25      C        0.27010    0.59214    0.37303    1.000
    C26      C        0.26821    0.59469    0.38332    1.000
    N27      N        0.26903    0.57727    0.38844    1.000
    N28      N        0.29916    0.64699    0.34745    1.000
    C29      C        0.31912    0.65754    0.34221    1.000
    C30      C        0.32868    0.64249    0.34224    1.000
    O31      O        0.34685    0.64874    0.33858    1.000
    C32      C        0.33546    0.67843    0.34722    1.000
    C33      C        0.32598    0.69346    0.34897    1.000
    C34      C        0.34029    0.70947    0.35628    1.000
    O35      O        0.36070    0.71884    0.35522    1.000
    O36      O        0.33291    0.70690    0.36425    1.000
    N37      N        0.31664    0.62357    0.34636    1.000
    C38      C        0.32183    0.60592    0.34614    1.000
    C39      C        0.32593    0.60219    0.33629    1.000
    O40      O        0.34250    0.60089    0.33410    1.000
    C41      C        0.30194    0.58456    0.34957    1.000
    C42      C        0.30631    0.56528    0.35007    1.000
    C43      C        0.28469    0.54402    0.35139    1.000
    O44      O        0.28507    0.52648    0.35188    1.000
    N45      N        0.26699    0.54454    0.34894    1.000
    N46      N        0.31175    0.60278    0.33052    1.000
    C47      C        0.31208    0.59959    0.32067    1.000
    C48      C        0.32742    0.62020    0.31551    1.000
    O49      O        0.33759    0.61929    0.30870    1.000
    C50      C        0.28913    0.58939    0.31648    1.000
    C51      C        0.28955    0.58324    0.30650    1.000
    C52      C        0.26707    0.56420    0.30429    1.000
    O53      O        0.26290    0.55818    0.29618    1.000
    N54      N        0.25662    0.55200    0.31140    1.000
    N55      N        0.32946    0.63806    0.31887    1.000
    C56      C        0.34535    0.65880    0.31499    1.000
    C57      C        0.36838    0.66217    0.31594    1.000
    O58      O        0.38060    0.66695    0.30912    1.000
    C59      C        0.34331    0.67684    0.31987    1.000
    C60      C        0.36267    0.69854    0.31697    1.000
    O61      O        0.37547    0.71091    0.32304    1.000
    N62      N        0.36773    0.69943    0.30823    1.000
    N63      N        0.37186    0.65579    0.32385    1.000
    C64      C        0.39139    0.65514    0.32670    1.000
    C65      C        0.39318    0.63734    0.32173    1.000
    O66      O        0.41157    0.64048    0.31935    1.000
    C67      C        0.39007    0.64997    0.33691    1.000
    N68      N        0.37450    0.61920    0.32049    1.000
    C69      C        0.37335    0.60066    0.31557    1.000
    C70      C        0.38091    0.60740    0.30582    1.000
    O71      O        0.39477    0.60304    0.30246    1.000
    C72      C        0.34982    0.58118    0.31575    1.000
    C73      C        0.34514    0.56384    0.30839    1.000
    C74      C        0.35646    0.55257    0.30825    1.000
    C75      C        0.32919    0.55939    0.30195    1.000
    C76      C        0.35197    0.53692    0.30159    1.000
    C77      C        0.32458    0.54372    0.29531    1.000
    C78      C        0.33601    0.53247    0.29512    1.000
    N79      N        0.37256    0.61848    0.30177    1.000
    C80      C        0.37661    0.62555    0.29223    1.000
    C81      C        0.40084    0.63922    0.29009    1.000
    O82      O        0.40922    0.63291    0.28412    1.000
    C83      C        0.36584    0.63909    0.28985    1.000
    C84      C        0.36623    0.64215    0.27953    1.000
    C85      C        0.38231    0.66111    0.27550    1.000
    C86      C        0.35051    0.62563    0.27425    1.000
    C87      C        0.38254    0.66376    0.26611    1.000
    C88      C        0.35046    0.62815    0.26491    1.000
    C89      C        0.36645    0.64727    0.26085    1.000
    O90      O        0.36577    0.65033    0.25129    1.000
    N91      N        0.41083    0.65694    0.29524    1.000
    C92      C        0.43427    0.67287    0.29501    1.000
    C93      C        0.44804    0.66191    0.29569    1.000
    O94      O        0.46142    0.66505    0.28948    1.000
    C95      C        0.44064    0.68909    0.30298    1.000
    C96      C        0.42906    0.70262    0.30263    1.000
    C97      C        0.43592    0.71655    0.29406    1.000
    O98      O        0.45562    0.72599    0.29152    1.000
    O99      O        0.42364    0.72331    0.29109    1.000
    N100     N        0.44496    0.65012    0.30310    1.000
    C101     C        0.45787    0.63939    0.30491    1.000
    C102     C        0.45437    0.62293    0.29744    1.000
    O103     O        0.46985    0.62020    0.29478    1.000
    C104     C        0.45241    0.62817    0.31431    1.000
    C105     C        0.45820    0.64423    0.32216    1.000
    C106     C        0.46337    0.61444    0.31592    1.000
    C107     C        0.45151    0.63136    0.33113    1.000
    N108     N        0.43554    0.61510    0.29316    1.000
    C109     C        0.43057    0.60041    0.28540    1.000
    C110     C        0.44338    0.61255    0.27690    1.000
    O111     O        0.45352    0.60529    0.27232    1.000
    C112     C        0.40558    0.58765    0.28394    1.000
    C113     C        0.39761    0.57037    0.27639    1.000
    C114     C        0.40608    0.55422    0.27739    1.000
    C115     C        0.37257    0.55823    0.27588    1.000
    N116     N        0.44582    0.63227    0.27593    1.000
    C117     C        0.45816    0.64725    0.26845    1.000
    C118     C        0.48153    0.66400    0.27098    1.000
    O119     O        0.49165    0.68149    0.26647    1.000
    C120     C        0.44687    0.65977    0.26499    1.000
    C121     C        0.42640    0.64433    0.25954    1.000
    N122     N        0.40562    0.63237    0.26359    1.000
    C123     C        0.42500    0.63863    0.25082    1.000
    C124     C        0.39096    0.61858    0.25684    1.000
    N125     N        0.40322    0.62274    0.24889    1.000
    N126     N        0.49032    0.65846    0.27763    1.000
    C127     C        0.51380    0.67298    0.27941    1.000
    C128     C        0.52850    0.66804    0.27341    1.000
    O129     O        0.52542    0.64889    0.27290    1.000
    C130     C        0.51998    0.67506    0.28953    1.000
    C131     C        0.51347    0.68994    0.29463    1.000
    C132     C        0.51892    0.69164    0.30482    1.000
    C133     C        0.52330    0.71263    0.29020    1.000
    N134     N        0.54073    0.68423    0.26776    1.000
    C135     C        0.55332    0.68293    0.26007    1.000
    C136     C        0.57108    0.67828    0.26315    1.000
    O137     O        0.57678    0.66752    0.25824    1.000
    C138     C        0.56523    0.70559    0.25569    1.000
    C139     C        0.55974    0.72059    0.26120    1.000
    C140     C        0.54412    0.70649    0.26874    1.000
    N141     N        0.58089    0.68849    0.27057    1.000
    C142     C        0.59970    0.68827    0.27448    1.000
    C143     C        0.59435    0.67445    0.28301    1.000
    O144     O        0.60889    0.67154    0.28651    1.000
    C145     C        0.61721    0.71176    0.27679    1.000
    C146     C        0.62608    0.72314    0.26776    1.000
    O147     O        0.62446    0.73968    0.26600    1.000
    N148     N        0.62530    0.70936    0.26149    1.000
    N149     N        0.57395    0.66480    0.28579    1.000
    C150     C        0.56613    0.64974    0.29359    1.000
    C151     C        0.56117    0.62668    0.29104    1.000
    O152     O        0.54293    0.61299    0.28783    1.000
    C153     C        0.54589    0.64920    0.29784    1.000
    C154     C        0.54110    0.64007    0.30752    1.000
    C155     C        0.56077    0.65332    0.31383    1.000
    C156     C        0.52021    0.63906    0.31115    1.000
    N157     N        0.57851    0.62432    0.29095    1.000
    C158     C        0.57894    0.60555    0.28693    1.000
    C159     C        0.56611    0.58360    0.29174    1.000
    O160     O        0.57510    0.57859    0.29792    1.000
    C161     C        0.60252    0.61050    0.28566    1.000
    C162     C        0.60189    0.59431    0.27866    1.000
    O163     O        0.61170    0.58388    0.28013    1.000
    N164     N        0.58814    0.59025    0.27193    1.000
    N165     N        0.54838    0.57004    0.28720    1.000
    C166     C        0.53394    0.54657    0.28883    1.000
    C167     C        0.52693    0.54117    0.29867    1.000
    O168     O        0.50951    0.53981    0.30142    1.000
    C169     C        0.54553    0.53381    0.28621    1.000
    C170     C        0.55033    0.53452    0.27600    1.000
    C171     C        0.56214    0.52169    0.27434    1.000
    O172     O        0.57355    0.52529    0.26733    1.000
    O173     O        0.55726    0.50494    0.27900    1.000
    N174     N        0.53985    0.53684    0.30347    1.000
    C175     C        0.53599    0.53070    0.31304    1.000
    C176     C        0.53757    0.54953    0.31864    1.000
    O177     O        0.52257    0.54588    0.32419    1.000
    C178     C        0.55249    0.52398    0.31644    1.000
    C179     C        0.54795    0.51536    0.32627    1.000
    C180     C        0.55908    0.50187    0.32782    1.000
    O181     O        0.55341    0.48527    0.32294    1.000
    O182     O        0.56766    0.50277    0.33539    1.000
    N183     N        0.55344    0.56891    0.31600    1.000
    C184     C        0.55563    0.58888    0.31985    1.000
    C185     C        0.53416    0.58909    0.31892    1.000
    O186     O        0.52592    0.59308    0.32568    1.000
    C187     C        0.57454    0.60957    0.31543    1.000
    C188     C        0.59719    0.61132    0.31626    1.000
    C189     C        0.61485    0.63404    0.31314    1.000
    O190     O        0.63105    0.64511    0.31820    1.000
    N191     N        0.60898    0.64284    0.30664    1.000
    N192     N        0.52301    0.58095    0.31144    1.000
    C193     C        0.50181    0.58000    0.31041    1.000
    C194     C        0.48303    0.56109    0.31544    1.000
    O195     O        0.46873    0.56384    0.31936    1.000
    C196     C        0.49585    0.57792    0.30031    1.000
    C197     C        0.47318    0.57522    0.29836    1.000
    C198     C        0.46812    0.57164    0.28818    1.000
    N199     N        0.48547    0.58994    0.28306    1.000
    C200     C        0.49945    0.58772    0.27779    1.000
    N201     N        0.49882    0.56868    0.27735    1.000
    N202     N        0.51547    0.60504    0.27375    1.000
    N203     N        0.48191    0.54217    0.31425    1.000
    C204     C        0.46361    0.52156    0.31756    1.000
    C205     C        0.45988    0.52202    0.32769    1.000
    O206     O        0.44097    0.51633    0.33048    1.000
    C207     C        0.46794    0.50270    0.31564    1.000
    C208     C        0.45876    0.49327    0.30629    1.000
    O209     O        0.44217    0.47451    0.30577    1.000
    N210     N        0.46515    0.50776    0.29968    1.000
    N211     N        0.47838    0.53146    0.33245    1.000
    C212     C        0.48072    0.53676    0.34216    1.000
    C213     C        0.47036    0.55038    0.34480    1.000
    O214     O        0.45491    0.54294    0.35041    1.000
    N215     N        0.47813    0.56914    0.34052    1.000
    C216     C        0.46964    0.58388    0.34224    1.000
    C217     C        0.44521    0.57295    0.34054    1.000
    O218     O        0.43390    0.57704    0.34586    1.000
    C219     C        0.48096    0.60434    0.33628    1.000
    C220     C        0.50188    0.62308    0.34053    1.000
    C221     C        0.52179    0.62437    0.33917    1.000
    C222     C        0.50078    0.63916    0.34537    1.000
    C223     C        0.54080    0.64169    0.34271    1.000
    C224     C        0.51971    0.65661    0.34893    1.000
    C225     C        0.53979    0.65793    0.34761    1.000
    N226     N        0.43728    0.55944    0.33351    1.000
    C227     C        0.41375    0.54901    0.33119    1.000
    C228     C        0.39946    0.53119    0.33793    1.000
    O229     O        0.38079    0.52784    0.34010    1.000
    C230     C        0.40846    0.54083    0.32121    1.000
    C231     C        0.41709    0.56008    0.31446    1.000
    C232     C        0.38383    0.52549    0.31959    1.000
    C233     C        0.41082    0.55233    0.30459    1.000
    N234     N        0.40870    0.52086    0.34148    1.000
    C235     C        0.39611    0.50236    0.34750    1.000
    C236     C        0.39499    0.50867    0.35727    1.000
    O237     O        0.37698    0.50041    0.36121    1.000
    C238     C        0.40433    0.48602    0.34698    1.000
    C239     C        0.38963    0.46563    0.35267    1.000
    C240     C        0.38258    0.44520    0.34693    1.000
    O241     O        0.36390    0.42884    0.34826    1.000
    N242     N        0.39581    0.44777    0.34002    1.000
    N243     N        0.41253    0.52544    0.36042    1.000
    C244     C        0.41326    0.53530    0.36925    1.000
    C245     C        0.39759    0.54428    0.36953    1.000
    O246     O        0.39093    0.54778    0.37691    1.000
    C247     C        0.43664    0.55462    0.37054    1.000
    O248     O        0.45230    0.54809    0.36822    1.000
    N249     N        0.39286    0.54832    0.36134    1.000
    C250     C        0.37956    0.55828    0.35897    1.000
    C251     C        0.35529    0.54129    0.35822    1.000
    O252     O        0.34091    0.54627    0.36008    1.000
    C253     C        0.38869    0.56942    0.34982    1.000
    C254     C        0.37658    0.57966    0.34528    1.000
    C255     C        0.37597    0.59706    0.35134    1.000
    C256     C        0.38731    0.58921    0.33604    1.000
    N257     N        0.35111    0.52102    0.35733    1.000
    C258     C        0.32880    0.50292    0.35861    1.000
    C259     C        0.32470    0.49708    0.36860    1.000
    O260     O        0.30564    0.48349    0.37115    1.000
    C261     C        0.32449    0.48129    0.35431    1.000
    C262     C        0.32889    0.48059    0.34417    1.000
    C263     C        0.32360    0.45692    0.34229    1.000
    C264     C        0.33511    0.45416    0.33396    1.000
    N265     N        0.33399    0.43280    0.33444    1.000
    N266     N        0.34222    0.50069    0.37320    1.000
    C267     C        0.34022    0.49160    0.38236    1.000
    C268     C        0.33820    0.50615    0.38947    1.000
    O269     O        0.32219    0.49817    0.39483    1.000
    C270     C        0.35938    0.48782    0.38470    1.000
    C271     C        0.35542    0.46608    0.38083    1.000
    O272     O        0.35311    0.46281    0.37248    1.000
    O273     O        0.34779    0.44955    0.38582    1.000
    N274     N        0.35149    0.52740    0.38828    1.000
    C275     C        0.34928    0.54366    0.39370    1.000
    C276     C        0.34835    0.56155    0.38826    1.000
    O277     O        0.36414    0.58088    0.38853    1.000
    C278     C        0.36771    0.55442    0.40075    1.000
    C279     C        0.36099    0.56587    0.40773    1.000
    O280     O        0.37278    0.57437    0.41461    1.000
    O281     O        0.34136    0.56126    0.40800    1.000
    N282     N        0.32888    0.55615    0.38503    1.000
    C283     C        0.32244    0.57236    0.38271    1.000
    C284     C        0.32025    0.58283    0.39142    1.000
    O285     O        0.30595    0.57153    0.39725    1.000
    C286     C        0.29982    0.56010    0.37815    1.000
    C287     C        0.29150    0.53558    0.37921    1.000
    C288     C        0.31014    0.53384    0.38380    1.000
    N289     N        0.33726    0.60216    0.39280    1.000
    C290     C        0.34395    0.61688    0.40068    1.000
    C291     C        0.36730    0.63363    0.39839    1.000
    O292     O        0.37176    0.65213    0.39541    1.000
    C293     C        0.34545    0.60610    0.40963    1.000
    O294     O        0.32436    0.59102    0.41339    1.000
    N295     N        0.37940    0.62398    0.39777    1.000
    C296     C        0.40181    0.63376    0.39425    1.000
    C297     C        0.40371    0.64083    0.38442    1.000
    O298     O        0.42129    0.65726    0.38194    1.000
    C299     C        0.41105    0.61822    0.39513    1.000
    C300     C        0.41769    0.61742    0.40499    1.000
    C301     C        0.42827    0.60316    0.40541    1.000
    O302     O        0.43572    0.60095    0.41283    1.000
    N303     N        0.42402    0.59004    0.39840    1.000
    N304     N        0.38544    0.62977    0.37962    1.000
    C305     C        0.38210    0.63440    0.37012    1.000
    C306     C        0.39035    0.65854    0.36847    1.000
    O307     O        0.37802    0.66601    0.37049    1.000
    C308     C        0.35755    0.62148    0.36763    1.000
    O309     O        0.35020    0.59861    0.36756    1.000
    N310     N        0.41127    0.67010    0.36638    1.000
    C311     C        0.42518    0.69419    0.36594    1.000
    C312     C        0.44939    0.70098    0.36622    1.000
    O313     O        0.46364    0.72020    0.36405    1.000
    C314     C        0.42078    0.70599    0.37381    1.000
    N315     N        0.45312    0.68494    0.36883    1.000
    C316     C        0.47443    0.68589    0.37026    1.000
    C317     C        0.48863    0.68873    0.36192    1.000
    O318     O        0.50462    0.68582    0.36290    1.000
    C319     C        0.47065    0.66503    0.37521    1.000
    C320     C        0.45615    0.64438    0.36967    1.000
    O321     O        0.44243    0.62745    0.37377    1.000
    N322     N        0.46274    0.64330    0.36149    1.000
    N323     N        0.48184    0.69122    0.35389    1.000
    C324     C        0.49150    0.69087    0.34495    1.000
    C325     C        0.51496    0.70906    0.34283    1.000
    O326     O        0.52002    0.72851    0.34473    1.000
    C327     C        0.47621    0.69012    0.33723    1.000
    C328     C        0.46734    0.70610    0.33828    1.000
    C329     C        0.46595    0.71547    0.32904    1.000
    C330     C        0.44450    0.69470    0.34262    1.000
    N331     N        0.52619    0.70250    0.33727    1.000
    C332     C        0.54609    0.71544    0.33140    1.000
    C333     C        0.56794    0.71866    0.33502    1.000
    O334     O        0.57684    0.73080    0.34182    1.000
    C335     C        0.54794    0.73744    0.32835    1.000
    C336     C        0.56607    0.75253    0.32151    1.000
    C337     C        0.55973    0.76858    0.31720    1.000
    C338     C        0.58942    0.76606    0.32554    1.000
    N339     N        0.57897    0.71268    0.32942    1.000
    C340     C        0.60214    0.71837    0.33097    1.000
    C341     C        0.61873    0.73638    0.32472    1.000
    O342     O        0.63163    0.75513    0.32795    1.000
    C343     C        0.60511    0.69812    0.33026    1.000
    N344     N        0.61686    0.73059    0.31594    1.000
    C345     C        0.62948    0.74537    0.30847    1.000
    C346     C        0.61810    0.75674    0.30425    1.000
    O347     O        0.59848    0.74560    0.30174    1.000
    C348     C        0.63447    0.73358    0.30084    1.000
    C349     C        0.65338    0.72955    0.30328    1.000
    C350     C        0.66176    0.72432    0.29463    1.000
    O351     O        0.65599    0.70487    0.29264    1.000
    O352     O        0.67332    0.73930    0.28912    1.000
    N353     N        0.62890    0.77695    0.30252    1.000
    N354     N        0.06331    0.96510    0.21685    1.000
    C355     C        0.06960    0.98584    0.22160    1.000
    C356     C        0.07916    0.00548    0.21528    1.000
    O357     O        0.08724    0.00445    0.20780    1.000
    C358     C        0.08585    0.98853    0.22915    1.000
    C359     C        0.08910    0.96856    0.22853    1.000
    C360     C        0.07467    0.95409    0.22070    1.000
    N361     N        0.07771    0.02231    0.21830    1.000
    C362     C        0.08671    0.04319    0.21338    1.000
    C363     C        0.09562    0.06277    0.21985    1.000
    O364     O        0.08354    0.06240    0.22625    1.000
    C365     C        0.06905    0.04306    0.20714    1.000
    O366     O        0.06095    0.02489    0.20100    1.000
    N367     N        0.11618    0.07862    0.21845    1.000
    C368     C        0.12784    0.09769    0.22443    1.000
    C369     C        0.13085    0.11900    0.22049    1.000
    O370     O        0.14685    0.13039    0.21537    1.000
    C371     C        0.15024    0.10023    0.22664    1.000
    C372     C        0.16348    0.11863    0.23345    1.000
    C373     C        0.14749    0.07834    0.22985    1.000
    N374     N        0.11771    0.12556    0.22382    1.000
    C375     C        0.12038    0.14720    0.22193    1.000
    C376     C        0.13514    0.16382    0.22894    1.000
    O377     O        0.13604    0.15763    0.23684    1.000
    C378     C        0.09850    0.14705    0.22191    1.000
    C379     C        0.08415    0.13412    0.21379    1.000
    C380     C        0.06563    0.11390    0.21509    1.000
    C381     C        0.09008    0.14260    0.20516    1.000
    C382     C        0.05299    0.10198    0.20767    1.000
    C383     C        0.07756    0.13089    0.19770    1.000
    C384     C        0.05900    0.11050    0.19895    1.000
    N385     N        0.14686    0.18384    0.22592    1.000
    C386     C        0.16216    0.20194    0.23172    1.000
    C387     C        0.16056    0.22257    0.23050    1.000
    O388     O        0.16299    0.23140    0.22286    1.000
    C389     C        0.18577    0.20693    0.23005    1.000
    C390     C        0.20196    0.22291    0.23705    1.000
    C391     C        0.19599    0.21292    0.24655    1.000
    C392     C        0.22571    0.22966    0.23469    1.000
    N393     N        0.15346    0.22808    0.23758    1.000
    C394     C        0.14887    0.24602    0.23732    1.000
    C395     C        0.16695    0.26673    0.24168    1.000
    O396     O        0.17854    0.26542    0.24784    1.000
    C397     C        0.12740    0.23895    0.24240    1.000
    C398     C        0.10837    0.21858    0.23800    1.000
    C399     C        0.09985    0.22041    0.22987    1.000
    C400     C        0.09952    0.19854    0.24225    1.000
    C401     C        0.08248    0.20212    0.22590    1.000
    C402     C        0.08216    0.18016    0.23833    1.000
    C403     C        0.07364    0.18196    0.23014    1.000
    N404     N        0.16951    0.28508    0.23834    1.000
    C405     C        0.18494    0.30703    0.24199    1.000
    C406     C        0.17642    0.31143    0.25081    1.000
    O407     O        0.15614    0.30228    0.25225    1.000
    C408     C        0.18670    0.32399    0.23495    1.000
    C409     C        0.16922    0.31118    0.22782    1.000
    C410     C        0.15844    0.28673    0.23021    1.000
    N411     N        0.19110    0.32752    0.25575    1.000
    C412     C        0.18544    0.33882    0.26261    1.000
    C413     C        0.17466    0.35040    0.25818    1.000
    O414     O        0.18230    0.36052    0.25085    1.000
    C415     C        0.20686    0.35673    0.26670    1.000
    C416     C        0.22562    0.35662    0.26150    1.000
    C417     C        0.21489    0.33782    0.25458    1.000
    N418     N        0.15973    0.35104    0.26315    1.000
    C419     C        0.14944    0.36394    0.26107    1.000
    C420     C        0.16655    0.38831    0.26103    1.000
    O421     O        0.18227    0.39551    0.26654    1.000
    C422     C        0.13217    0.35828    0.26846    1.000
    C423     C        0.12111    0.37225    0.26847    1.000
    C424     C        0.10524    0.36543    0.27661    1.000
    C425     C        0.10007    0.38337    0.27958    1.000
    N426     N        0.08823    0.37716    0.28830    1.000
    N427     N        0.16724    0.39961    0.25377    1.000
    C428     C        0.18446    0.42258    0.25218    1.000
    C429     C        0.18763    0.43798    0.26003    1.000
    O430     O        0.20659    0.45082    0.26281    1.000
    C431     C        0.17839    0.43066    0.24360    1.000
    C432     C        0.15762    0.41100    0.23979    1.000
    C433     C        0.15119    0.39170    0.24632    1.000
    N434     N        0.16977    0.43509    0.26402    1.000
    C435     C        0.16975    0.44683    0.27220    1.000
    C436     C        0.18266    0.44445    0.28001    1.000
    O437     O        0.19485    0.46060    0.28488    1.000
    C438     C        0.14571    0.43790    0.27506    1.000
    C439     C        0.14436    0.45169    0.28280    1.000
    C440     C        0.12178    0.44953    0.28413    1.000
    C441     C        0.12257    0.46389    0.29218    1.000
    N442     N        0.10081    0.46083    0.29409    1.000
    N443     N        0.18048    0.42479    0.28066    1.000
    C444     C        0.18969    0.41715    0.28783    1.000
    C445     C        0.21380    0.42418    0.28660    1.000
    O446     O        0.22496    0.42389    0.29318    1.000
    C447     C        0.17601    0.39214    0.28910    1.000
    C448     C        0.15325    0.38669    0.29223    1.000
    O449     O        0.14729    0.40068    0.29119    1.000
    O450     O        0.13893    0.36713    0.29384    1.000
    N451     N        0.22218    0.43190    0.27862    1.000
    C452     C        0.24560    0.44070    0.27685    1.000
    C453     C        0.25726    0.46536    0.27667    1.000
    O454     O        0.27766    0.47617    0.27581    1.000
    C455     C        0.24955    0.43293    0.26767    1.000
    O456     O        0.23931    0.43834    0.26054    1.000
    C457     C        0.23972    0.40817    0.26757    1.000
    N458     N        0.24369    0.47297    0.27653    1.000
    C459     C        0.25145    0.49624    0.27557    1.000
    C460     C        0.25502    0.50704    0.28474    1.000
    O461     O        0.26904    0.52689    0.28553    1.000
    C462     C        0.23533    0.50051    0.27019    1.000
    C463     C        0.23757    0.49752    0.26002    1.000
    C464     C        0.22374    0.50414    0.25416    1.000
    C465     C        0.26181    0.50862    0.25711    1.000
    N466     N        0.24053    0.49461    0.29092    1.000
    C467     C        0.23911    0.50236    0.30000    1.000
    C468     C        0.24715    0.49363    0.30765    1.000
    O469     O        0.24189    0.47377    0.30744    1.000
    C470     C        0.21695    0.50113    0.30167    1.000
    C471     C        0.21457    0.51477    0.29402    1.000
    S472     S        0.20039    0.52954    0.29642    1.000
    C473     C        0.21055    0.54871    0.28708    1.000
    N474     N        0.26415    0.50920    0.31238    1.000
    C475     C        0.27750    0.50460    0.31875    1.000
    C476     C        0.26499    0.49358    0.32737    1.000
    O477     O        0.26841    0.48018    0.33167    1.000
    C478     C        0.29847    0.52550    0.32130    1.000
    C479     C        0.31284    0.52007    0.32737    1.000
    C480     C        0.29292    0.54171    0.32569    1.000
    C481     C        0.33141    0.54040    0.33200    1.000
    N482     N        0.24779    0.49569    0.32809    1.000
    C483     C        0.22988    0.48563    0.33453    1.000
    C484     C        0.21384    0.46181    0.33220    1.000
    O485     O        0.20054    0.44904    0.33799    1.000
    C486     C        0.21852    0.49925    0.33355    1.000
    O487     O        0.23500    0.52204    0.33214    1.000
    N488     N        0.21587    0.45583    0.32404    1.000
    C489     C        0.20204    0.43345    0.32062    1.000
    C490     C        0.21482    0.42151    0.32041    1.000
    O491     O        0.23510    0.43236    0.32145    1.000
    C492     C        0.19583    0.43408    0.31068    1.000
    C493     C        0.17865    0.44098    0.30898    1.000
    C494     C        0.15623    0.42286    0.31211    1.000
    N495     N        0.13876    0.42667    0.30892    1.000
    C496     C        0.12044    0.41011    0.30569    1.000
    N497     N        0.11874    0.39052    0.30533    1.000
    N498     N        0.10273    0.41178    0.30480    1.000
    N499     N        0.20399    0.40079    0.31831    1.000
    C500     C        0.21513    0.38825    0.31682    1.000
    C501     C        0.20751    0.37381    0.30835    1.000
    O502     O        0.18844    0.35750    0.30807    1.000
    C503     C        0.21320    0.37436    0.32524    1.000
    O504     O        0.22304    0.38849    0.33288    1.000
    C505     C        0.22484    0.36095    0.32392    1.000
    N506     N        0.22258    0.37966    0.30186    1.000
    C507     C        0.21988    0.36829    0.29313    1.000
    C508     C        0.21911    0.34641    0.29410    1.000
    O509     O        0.23328    0.34513    0.29880    1.000
    C510     C        0.24047    0.38264    0.28754    1.000
    C511     C        0.25657    0.40114    0.29366    1.000
    C512     C        0.24488    0.39844    0.30274    1.000
    N513     N        0.20379    0.33012    0.28934    1.000
    C514     C        0.20008    0.30773    0.28910    1.000
    C515     C        0.19666    0.29839    0.27951    1.000
    O516     O        0.18129    0.29736    0.27485    1.000
    C517     C        0.17869    0.29311    0.29415    1.000
    C518     C        0.17859    0.30019    0.30398    1.000
    C519     C        0.15497    0.28699    0.30728    1.000
    O520     O        0.13973    0.28287    0.30178    1.000
    O521     O        0.15055    0.27603    0.31451    1.000
    N522     N        0.20799    0.28876    0.27730    1.000
    C523     C        0.20558    0.27623    0.26893    1.000
    C524     C        0.19161    0.25155    0.27039    1.000
    O525     O        0.19809    0.24208    0.27570    1.000
    C526     C        0.22801    0.28212    0.26468    1.000
    C527     C        0.22594    0.26588    0.25717    1.000
    C528     C        0.24061    0.30583    0.26109    1.000
    N529     N        0.17147    0.24221    0.26708    1.000
    C530     C        0.15443    0.21957    0.26915    1.000
    C531     C        0.15159    0.20281    0.26198    1.000
    O532     O        0.14563    0.20422    0.25409    1.000
    C533     C        0.13251    0.21871    0.27035    1.000
    O534     O        0.13509    0.23423    0.27714    1.000
    C535     C        0.11432    0.19578    0.27315    1.000
    N536     N        0.15585    0.18748    0.26470    1.000
    C537     C        0.15412    0.17024    0.25864    1.000
    C538     C        0.13280    0.14900    0.25987    1.000
    O539     O        0.13031    0.13665    0.26644    1.000
    C540     C        0.17360    0.16635    0.25972    1.000
    S541     S        0.17879    0.15284    0.25037    1.000
    N542     N        0.11782    0.14635    0.25402    1.000
    C543     C        0.09605    0.12703    0.25422    1.000
    C544     C        0.09273    0.10917    0.24754    1.000
    O545     O        0.08855    0.11030    0.23934    1.000
    C546     C        0.07803    0.13297    0.25311    1.000
    C547     C        0.05494    0.11248    0.25381    1.000
    C548     C        0.08137    0.15104    0.25990    1.000
    N549     N        0.09203    0.09220    0.25149    1.000
    C550     C        0.08612    0.07159    0.24695    1.000
    C551     C        0.06211    0.05425    0.24860    1.000
    O552     O        0.05515    0.04869    0.25661    1.000
    C553     C        0.10140    0.06333    0.25043    1.000
    C554     C        0.09943    0.04382    0.24497    1.000
    C555     C        0.12524    0.08196    0.25132    1.000
    N556     N        0.04999    0.04483    0.24129    1.000
    C557     C        0.02783    0.02597    0.24226    1.000
    C558     C        0.02519    0.00491    0.23811    1.000
    O559     O        0.02382    0.00265    0.22962    1.000
    C560     C        0.00966    0.03042    0.23896    1.000
    C561     C        0.98689    0.01155    0.24164    1.000
    C562     C        0.01295    0.05245    0.24246    1.000
    N563     N        0.02405    0.99014    0.24425    1.000
    C564     C        0.02069    0.96767    0.24288    1.000
    C565     C        0.03027    0.96021    0.25051    1.000
    O566     O        0.01870    0.94977    0.25723    1.000
    C567     C        0.03091    0.96626    0.23389    1.000
    C568     C        0.02336    0.94290    0.23069    1.000
    O569     O        0.01740    0.92728    0.23624    1.000
    O570     O        0.02084    0.93880    0.22229    1.000
    N571     N        0.05009    0.96366    0.24870    1.000
    C572     C        0.06387    0.95811    0.25436    1.000
    C573     C        0.05541    0.93363    0.25535    1.000
    O574     O        0.06835    0.92648    0.25412    1.000
    C575     C        0.06830    0.96938    0.26373    1.000
    C576     C        0.08299    0.96434    0.26978    1.000
    C577     C        0.07763    0.99424    0.26284    1.000
    N578     N        0.03431    0.92177    0.25737    1.000
    C579     C        0.02039    0.89801    0.25888    1.000
    C580     C        0.02122    0.89035    0.26846    1.000
    O581     O        0.03829    0.90039    0.27316    1.000
    C582     C        0.02458    0.88374    0.25220    1.000
    O583     O        0.04184    0.88062    0.25567    1.000
    N584     N        0.00533    0.87050    0.27027    1.000
    C585     C        0.00546    0.85843    0.27831    1.000
    C586     C        0.01608    0.84474    0.27611    1.000
    O587     O        0.02064    0.84353    0.26796    1.000
    C588     C        0.98210    0.84407    0.28204    1.000
    C589     C        0.98243    0.84075    0.29235    1.000
    N590     N        0.00009    0.85579    0.29768    1.000
    C591     C        0.96762    0.82486    0.29771    1.000
    C592     C        0.99575    0.84853    0.30674    1.000
    N593     N        0.97528    0.82912    0.30672    1.000
    N594     N        0.02371    0.83895    0.28311    1.000
    C595     C        0.03861    0.83003    0.28283    1.000
    C596     C        0.06201    0.84757    0.28061    1.000
    O597     O        0.07772    0.84729    0.28448    1.000
    C598     C        0.03112    0.81037    0.27637    1.000
    C599     C        0.00881    0.79081    0.27906    1.000
    C600     C        0.00302    0.77228    0.27233    1.000
    O601     O        0.01661    0.77444    0.26633    1.000
    O602     O        0.98709    0.75355    0.27391    1.000
    N603     N        0.06412    0.86415    0.27569    1.000
    C604     C        0.08542    0.88401    0.27427    1.000
    C605     C        0.08691    0.90566    0.27698    1.000
    O606     O        0.09369    0.92046    0.27109    1.000
    C607     C        0.09130    0.88566    0.26412    1.000
    C608     C        0.11185    0.88399    0.26284    1.000
    O609     O        0.13029    0.90092    0.26350    1.000
    O610     O        0.11042    0.86770    0.25875    1.000
    N611     N        0.08034    0.90829    0.28513    1.000
    C612     C        0.08110    0.92889    0.28773    1.000
    C613     C        0.10431    0.94779    0.28925    1.000
    O614     O        0.10701    0.96541    0.29252    1.000
    C615     C        0.06909    0.92504    0.29683    1.000
    C616     C        0.06412    0.90254    0.30024    1.000
    C617     C        0.07155    0.89256    0.29277    1.000
    N618     N        0.11981    0.94262    0.28885    1.000
    C619     C        0.14187    0.95734    0.29227    1.000
    C620     C        0.15630    0.97560    0.28570    1.000
    O621     O        0.17232    0.97599    0.28178    1.000
    C622     C        0.15279    0.94446    0.29569    1.000
    C623     C        0.17167    0.95785    0.30235    1.000
    C624     C        0.17904    0.94289    0.30660    1.000
    O625     O        0.19142    0.93823    0.30221    1.000
    N626     N        0.16783    0.93204    0.31382    1.000
    N627     N        0.14963    0.98975    0.28436    1.000
    C628     C        0.16082    0.00891    0.27848    1.000
    C629     C        0.17918    0.02872    0.28331    1.000
    O630     O        0.17526    0.04040    0.28856    1.000
    C631     C        0.14421    0.01431    0.27408    1.000
    C632     C        0.12786    0.01485    0.28086    1.000
    C633     C        0.15512    0.03477    0.26801    1.000
    N634     N        0.19882    0.03181    0.28186    1.000
    C635     C        0.21805    0.05075    0.28569    1.000
    C636     C        0.22406    0.07133    0.28022    1.000
    O637     O        0.23229    0.07365    0.27245    1.000
    C638     C        0.23767    0.04687    0.28604    1.000
    C639     C        0.25761    0.06562    0.29087    1.000
    C640     C        0.27705    0.06150    0.29134    1.000
    C641     C        0.29678    0.08003    0.29634    1.000
    N642     N        0.31473    0.07522    0.29681    1.000
    N643     N        0.21914    0.08521    0.28408    1.000
    C644     C        0.22517    0.10634    0.27997    1.000
    C645     C        0.24972    0.12103    0.28090    1.000
    O646     O        0.25954    0.12003    0.28786    1.000
    C647     C        0.21472    0.11814    0.28489    1.000
    C648     C        0.19136    0.11141    0.28179    1.000
    C649     C        0.17366    0.09805    0.28716    1.000
    C650     C        0.18819    0.11980    0.27387    1.000
    C651     C        0.15258    0.09275    0.28459    1.000
    C652     C        0.16720    0.11464    0.27123    1.000
    C653     C        0.14933    0.10104    0.27660    1.000
    N654     N        0.25911    0.13297    0.27374    1.000
    C655     C        0.28248    0.14849    0.27292    1.000
    C656     C        0.28618    0.17041    0.26967    1.000
    O657     O        0.27631    0.17129    0.26275    1.000
    C658     C        0.29278    0.13976    0.26617    1.000
    C659     C        0.29948    0.12584    0.27168    1.000
    O660     O        0.28476    0.10706    0.27417    1.000
    N661     N        0.31735    0.13843    0.27645    1.000
    N662     N        0.29705    0.18657    0.27525    1.000
    C663     C        0.30024    0.20835    0.27367    1.000
    C664     C        0.32413    0.22579    0.27256    1.000
    O665     O        0.33805    0.22903    0.27856    1.000
    C666     C        0.29051    0.21488    0.28155    1.000
    C667     C        0.26566    0.20503    0.28077    1.000
    C668     C        0.24939    0.18838    0.28537    1.000
    C669     C        0.25536    0.21285    0.27503    1.000
    N670     N        0.22897    0.18578    0.28269    1.000
    C671     C        0.23263    0.20019    0.27671    1.000
    C672     C        0.26394    0.22960    0.26873    1.000
    C673     C        0.21762    0.20394    0.27223    1.000
    C674     C        0.24874    0.23320    0.26417    1.000
    C675     C        0.22631    0.22080    0.26588    1.000
    N676     N        0.32867    0.23547    0.26472    1.000
    C677     C        0.35094    0.25183    0.26204    1.000
    C678     C        0.35236    0.27342    0.25965    1.000
    O679     O        0.33589    0.27333    0.25634    1.000
    C680     C        0.35839    0.24409    0.25369    1.000
    C681     C        0.35640    0.22158    0.25530    1.000
    C682     C        0.33775    0.20269    0.25268    1.000
    C683     C        0.37345    0.22041    0.25927    1.000
    C684     C        0.33605    0.18250    0.25403    1.000
    C685     C        0.37190    0.20026    0.26063    1.000
    C686     C        0.35317    0.18133    0.25800    1.000
    O687     O        0.35151    0.16046    0.25932    1.000
    N688     N        0.37039    0.29098    0.26215    1.000
    C689     C        0.37351    0.31291    0.26088    1.000
    C690     C        0.39583    0.32847    0.25682    1.000
    O691     O        0.41281    0.33004    0.26042    1.000
    C692     C        0.37046    0.32261    0.26976    1.000
    C693     C        0.37558    0.34634    0.26827    1.000
    C694     C        0.34758    0.30833    0.27396    1.000
    N695     N        0.39444    0.33455    0.24851    1.000
    C696     C        0.41223    0.34119    0.24208    1.000
    C697     C        0.41702    0.32242    0.24130    1.000
    O698     O        0.40157    0.30336    0.23958    1.000
    C699     C        0.43280    0.36293    0.24470    1.000
    C700     C        0.43364    0.38089    0.23867    1.000
    O701     O        0.43656    0.39842    0.24210    1.000
    O702     O        0.43293    0.37892    0.23017    1.000
    N703     N        0.43623    0.32618    0.24400    1.000
    C704     C        0.44062    0.30793    0.24377    1.000
    C705     C        0.43228    0.29263    0.25199    1.000
    O706     O        0.42821    0.27315    0.25117    1.000
    N707     N        0.43523    0.30302    0.25984    1.000
    C708     C        0.43533    0.29375    0.26874    1.000
    C709     C        0.41258    0.27793    0.27250    1.000
    O710     O        0.39772    0.28289    0.27232    1.000
    C711     C        0.44796    0.31298    0.27529    1.000
    C712     C        0.45200    0.30608    0.28467    1.000
    C713     C        0.46944    0.33086    0.27103    1.000
    N714     N        0.41041    0.25992    0.27640    1.000
    C715     C        0.39049    0.24416    0.28139    1.000
    C716     C        0.38938    0.25297    0.29073    1.000
    O717     O        0.40667    0.26745    0.29450    1.000
    C718     C        0.38810    0.22116    0.28222    1.000
    C719     C        0.36522    0.20377    0.28563    1.000
    C720     C        0.36359    0.18148    0.28657    1.000
    O721     O        0.34719    0.16634    0.29050    1.000
    N722     N        0.37599    0.17808    0.28090    1.000
    N723     N        0.36984    0.24929    0.29304    1.000
    C724     C        0.36719    0.26092    0.30075    1.000
    C725     C        0.35723    0.24653    0.30907    1.000
    O726     O        0.35194    0.25374    0.31588    1.000
    C727     C        0.35417    0.27227    0.29805    1.000
    C728     C        0.36694    0.29165    0.29158    1.000
    C729     C        0.33115    0.25624    0.29453    1.000
    N730     N        0.35529    0.22690    0.30815    1.000
    C731     C        0.34342    0.20886    0.31463    1.000
    C732     C        0.32017    0.20461    0.31531    1.000
    O733     O        0.30949    0.20207    0.30811    1.000
    C734     C        0.35383    0.21424    0.32423    1.000
    C735     C        0.37107    0.20716    0.32533    1.000
    N736     N        0.36632    0.18590    0.32301    1.000
    C737     C        0.39160    0.21838    0.32856    1.000
    C738     C        0.38501    0.18428    0.32490    1.000
    N739     N        0.40088    0.20475    0.32838    1.000
    N740     N        0.31570    0.21004    0.32324    1.000
    C741     C        0.29611    0.21156    0.32477    1.000
    C742     C        0.29883    0.23271    0.32090    1.000
    O743     O        0.28586    0.23181    0.31485    1.000
    C744     C        0.29061    0.21015    0.33494    1.000
    C745     C        0.28146    0.18660    0.33805    1.000
    O746     O        0.27918    0.18233    0.34639    1.000
    N747     N        0.27086    0.17195    0.33168    1.000
    N748     N        0.31545    0.25070    0.32425    1.000
    C749     C        0.31884    0.27286    0.32286    1.000
    C750     C        0.29746    0.27203    0.32512    1.000
    O751     O        0.28864    0.27855    0.31940    1.000
    C752     C        0.32548    0.28150    0.31310    1.000
    N753     N        0.28795    0.25930    0.33227    1.000
    C754     C        0.26572    0.25212    0.33535    1.000
    C755     C        0.24896    0.24008    0.32785    1.000
    O756     O        0.23488    0.24546    0.32590    1.000
    C757     C        0.26441    0.27206    0.33883    1.000
    C758     C        0.24476    0.26601    0.34511    1.000
    C759     C        0.24335    0.28639    0.34769    1.000
    C760     C        0.22340    0.28066    0.35372    1.000
    N761     N        0.22235    0.30050    0.35571    1.000
    N762     N        0.25058    0.22394    0.32398    1.000
    C763     C        0.23414    0.20814    0.31770    1.000
    C764     C        0.21467    0.19146    0.32311    1.000
    O765     O        0.21829    0.18428    0.33031    1.000
    C766     C        0.24321    0.19599    0.31216    1.000
    O767     O        0.24917    0.20613    0.30351    1.000
    C768     C        0.22861    0.17100    0.31133    1.000
    N769     N        0.19515    0.18750    0.32050    1.000
    C770     C        0.17610    0.17219    0.32587    1.000
    C771     C        0.15574    0.15513    0.32075    1.000
    O772     O        0.13986    0.15839    0.31974    1.000
    C773     C        0.17041    0.18428    0.33312    1.000
    C774     C        0.15706    0.16863    0.34085    1.000
    C775     C        0.15228    0.18037    0.34854    1.000
    C776     C        0.13929    0.16450    0.35628    1.000
    N777     N        0.13508    0.17623    0.36350    1.000
    N778     N        0.15551    0.13676    0.31813    1.000
    C779     C        0.13637    0.11773    0.31407    1.000
    C780     C        0.11765    0.10569    0.32076    1.000
    O781     O        0.12018    0.09632    0.32752    1.000
    C782     C        0.14353    0.10165    0.31069    1.000
    C783     C        0.16726    0.11069    0.31375    1.000
    C784     C        0.17418    0.13269    0.31845    1.000
    N785     N        0.09894    0.10433    0.31854    1.000
    C786     C        0.07918    0.09097    0.32402    1.000
    C787     C        0.06064    0.07188    0.31890    1.000
    O788     O        0.05365    0.07524    0.31157    1.000
    C789     C        0.07108    0.10525    0.32859    1.000
    C790     C        0.05468    0.09295    0.33628    1.000
    C791     C        0.04904    0.10804    0.34178    1.000
    N792     N        0.03484    0.09602    0.34946    1.000
    C793     C        0.01988    0.09993    0.35290    1.000
    N794     N        0.01713    0.11568    0.34951    1.000
    N795     N        0.00795    0.08837    0.35984    1.000
    N796     N        0.05498    0.05226    0.32198    1.000
    C797     C        0.03975    0.03222    0.31700    1.000
    C798     C        0.01621    0.02754    0.31661    1.000
    O799     O        0.00676    0.02735    0.32389    1.000
    C800     C        0.03995    0.01233    0.32115    1.000
    C801     C        0.06320    0.01547    0.32100    1.000
    C802     C        0.06262    0.99573    0.32558    1.000
    O803     O        0.04534    0.98199    0.32957    1.000
    O804     O        0.07719    0.99078    0.32386    1.000
    N805     N        0.00703    0.02208    0.30841    1.000
    C806     C        0.98375    0.01408    0.30624    1.000
    C807     C        0.97286    0.99135    0.30193    1.000
    O808     O        0.98451    0.98533    0.29778    1.000
    C809     C        0.98130    0.02995    0.29979    1.000
    C810     C        0.99223    0.05350    0.30351    1.000
    C811     C        0.99164    0.06873    0.29631    1.000
    O812     O        0.00764    0.07890    0.29105    1.000
    N813     N        0.97269    0.06791    0.29528    1.000
    N814     N        0.95193    0.97825    0.30379    1.000
    C815     C        0.93923    0.95537    0.30069    1.000
    C816     C        0.91961    0.95123    0.29488    1.000
    O817     O        0.90298    0.94990    0.29863    1.000
    C818     C        0.93103    0.93993    0.30895    1.000
    C819     C        0.94997    0.94297    0.31513    1.000
    C820     C        0.94068    0.92805    0.32338    1.000
    O821     O        0.92347    0.92553    0.32701    1.000
    N822     N        0.95453    0.92346    0.32745    1.000
    N823     N        0.92291    0.95285    0.28602    1.000
    C824     C        0.90778    0.95398    0.27944    1.000
    C825     C        0.89370    0.93306    0.27408    1.000
    O826     O        0.89313    0.91556    0.27629    1.000
    C827     C        0.92091    0.97188    0.27233    1.000
    C828     C        0.92589    0.99498    0.27509    1.000
    C829     C        0.92863    0.00131    0.28406    1.000
    C830     C        0.92740    0.00936    0.26845    1.000
    C831     C        0.93304    0.02216    0.28640    1.000
    C832     C        0.93176    0.03023    0.27071    1.000
    C833     C        0.93465    0.03664    0.27970    1.000
    O834     O        0.93934    0.05826    0.28205    1.000
    N835     N        0.88595    0.93708    0.26654    1.000
    C836     C        0.87500    0.92318    0.25861    1.000
    C837     C        0.86716    0.89905    0.26010    1.000
    O838     O        0.84914    0.88644    0.26383    1.000
    C839     C        0.89228    0.93127    0.25096    1.000
    C840     C        0.88208    0.92336    0.24161    1.000
    O841     O        0.86612    0.90442    0.24044    1.000
    N842     N        0.89175    0.93746    0.23493    1.000
    N843     N        0.88201    0.89428    0.25767    1.000
    C844     C        0.88153    0.87351    0.25878    1.000
    C845     C        0.90501    0.87849    0.25986    1.000
    O846     O        0.91016    0.86428    0.25801    1.000
    C847     C        0.87202    0.85988    0.25012    1.000
    O848     O        0.88451    0.87252    0.24248    1.000
    N849     N        0.91883    0.89948    0.26123    1.000
    C850     C        0.94282    0.90998    0.26141    1.000
    C851     C        0.95301    0.92908    0.26809    1.000
    O852     O        0.94084    0.93386    0.27255    1.000
    C853     C        0.95163    0.91814    0.25176    1.000
    O854     O        0.97469    0.92609    0.25128    1.000
    C855     C        0.94635    0.93562    0.24837    1.000
    N856     N        0.97445    0.93940    0.26914    1.000
    C857     C        0.98573    0.95748    0.27564    1.000
    C858     C        0.99656    0.98021    0.27129    1.000
    O859     O        0.00702    0.98378    0.26399    1.000
    C860     C        0.00291    0.95478    0.28112    1.000
    C861     C        0.99291    0.93440    0.28731    1.000
    C862     C        0.98441    0.93512    0.29564    1.000
    C863     C        0.99296    0.91569    0.28468    1.000
    C864     C        0.97584    0.91709    0.30138    1.000
    C865     C        0.98439    0.89753    0.29037    1.000
    C866     C        0.97586    0.89832    0.29872    1.000
    O867     O        0.96706    0.87971    0.30465    1.000
    N868     N        0.99520    0.99552    0.27592    1.000
    C869     C        0.00630    0.01894    0.27325    1.000
    C870     C        0.02471    0.03443    0.27965    1.000
    O871     O        0.02057    0.03932    0.28735    1.000
    C872     C        0.99030    0.02762    0.27218    1.000
    C873     C        0.00345    0.05206    0.26963    1.000
    C874     C        0.98927    0.06290    0.26950    1.000
    N875     N        0.00302    0.08660    0.26810    1.000
    C876     C        0.99506    0.09987    0.26889    1.000
    N877     N        0.97409    0.09146    0.27073    1.000
    N878     N        0.00720    0.12085    0.26701    1.000
    N879     N        0.04453    0.03956    0.27697    1.000
    C880     C        0.06385    0.05136    0.28280    1.000
    C881     C        0.07861    0.07509    0.27982    1.000
    O882     O        0.08283    0.07954    0.27154    1.000
    C883     C        0.07661    0.03880    0.28302    1.000
    C884     C        0.09531    0.04822    0.29003    1.000
    C885     C        0.06124    0.01410    0.28453    1.000
    N886     N        0.08429    0.08997    0.28628    1.000
    C887     C        0.09680    0.11370    0.28465    1.000
    C888     C        0.11554    0.12556    0.29139    1.000
    O889     O        0.11077    0.12579    0.29960    1.000
    C890     C        0.08120    0.12296    0.28579    1.000
    C891     C        0.09281    0.14789    0.28450    1.000
    C892     C        0.06065    0.11127    0.27978    1.000
    N893     N        0.13562    0.13757    0.28793    1.000
    C894     C        0.15473    0.15302    0.29341    1.000
    C895     C        0.16379    0.17718    0.29112    1.000
    O896     O        0.16424    0.18294    0.28303    1.000
    C897     C        0.17356    0.14826    0.29312    1.000
    O898     O        0.19048    0.16400    0.29887    1.000
    N899     N        0.16776    0.19059    0.29808    1.000
    C900     C        0.17359    0.21360    0.29693    1.000
    C901     C        0.19680    0.22962    0.30000    1.000
    O902     O        0.20124    0.23375    0.30828    1.000
    C903     C        0.15791    0.21871    0.30220    1.000
    C904     C        0.16212    0.24164    0.30000    1.000
    C905     C        0.13396    0.20179    0.30039    1.000
    N906     N        0.21152    0.23830    0.29353    1.000
    C907     C        0.23401    0.25459    0.29581    1.000
    C908     C        0.23638    0.27703    0.29670    1.000
    O909     O        0.23221    0.28570    0.29018    1.000
    C910     C        0.25104    0.25616    0.28889    1.000
    C911     C        0.27453    0.26952    0.29273    1.000
    C912     C        0.28218    0.25510    0.29734    1.000
    C913     C        0.29143    0.28473    0.28573    1.000
    N914     N        0.24385    0.28630    0.30442    1.000
    C915     C        0.24913    0.30863    0.30598    1.000
    C916     C        0.27214    0.32490    0.30256    1.000
    O917     O        0.28673    0.31964    0.30263    1.000
    C918     C        0.24520    0.31105    0.31611    1.000
    O919     O        0.25090    0.29746    0.32144    1.000
    C920     C        0.22083    0.30338    0.31774    1.000
    N921     N        0.27317    0.34144    0.29780    1.000
    C922     C        0.29118    0.35819    0.29218    1.000
    C923     C        0.30193    0.38084    0.29656    1.000
    O924     O        0.29033    0.38786    0.29998    1.000
    C925     C        0.28013    0.35949    0.28335    1.000
    C926     C        0.29423    0.37912    0.27723    1.000
    C927     C        0.26984    0.33799    0.27804    1.000
    N928     N        0.32310    0.39320    0.29556    1.000
    C929     C        0.33405    0.41651    0.29791    1.000
    C930     C        0.33065    0.42915    0.29031    1.000
    O931     O        0.33702    0.42789    0.28253    1.000
    C932     C        0.35898    0.42580    0.29888    1.000
    C933     C        0.36511    0.41677    0.30719    1.000
    C934     C        0.38902    0.42173    0.30687    1.000
    C935     C        0.36049    0.42560    0.31590    1.000
    N936     N        0.32109    0.44037    0.29252    1.000
    C937     C        0.31759    0.45521    0.28666    1.000
    C938     C        0.33610    0.46756    0.27984    1.000
    O939     O        0.33261    0.46599    0.27143    1.000
    C940     C        0.31725    0.47277    0.29277    1.000
    C941     C        0.29921    0.46316    0.30010    1.000
    N942     N        0.30058    0.45184    0.30771    1.000
    C943     C        0.28053    0.46396    0.30067    1.000
    C944     C        0.28169    0.44533    0.31297    1.000
    N945     N        0.26903    0.45305    0.30853    1.000
    N946     N        0.35533    0.47794    0.28364    1.000
    C947     C        0.37622    0.49037    0.27897    1.000
    C948     C        0.37954    0.47735    0.27148    1.000
    O949     O        0.38708    0.48640    0.26402    1.000
    C950     C        0.39333    0.49562    0.28638    1.000
    C951     C        0.38086    0.48834    0.29544    1.000
    C952     C        0.39513    0.48620    0.30261    1.000
    O953     O        0.38776    0.48116    0.31055    1.000
    N954     N        0.41059    0.48295    0.29927    1.000
    N955     N        0.37573    0.45750    0.27359    1.000
    C956     C        0.37984    0.44333    0.26748    1.000
    C957     C        0.36560    0.43627    0.25903    1.000
    O958     O        0.37465    0.43727    0.25155    1.000
    C959     C        0.37577    0.42217    0.27216    1.000
    C960     C        0.39294    0.42670    0.27935    1.000
    O961     O        0.40672    0.44590    0.28159    1.000
    N962     N        0.39326    0.40918    0.28199    1.000
    N963     N        0.34445    0.42876    0.26045    1.000
    C964     C        0.32814    0.42197    0.25324    1.000
    C965     C        0.33160    0.44130    0.24733    1.000
    O966     O        0.33067    0.43944    0.23881    1.000
    C967     C        0.30519    0.41131    0.25735    1.000
    C968     C        0.28742    0.40436    0.25001    1.000
    C969     C        0.27942    0.41630    0.24620    1.000
    C970     C        0.27617    0.38383    0.24582    1.000
    N971     N        0.26383    0.40364    0.23958    1.000
    C972     C        0.26210    0.38483    0.23934    1.000
    C973     C        0.27715    0.36501    0.24714    1.000
    C974     C        0.24878    0.36736    0.23381    1.000
    C975     C        0.26360    0.34738    0.24165    1.000
    C976     C        0.24991    0.34854    0.23518    1.000
    N977     N        0.33634    0.45959    0.25172    1.000
    C978     C        0.34276    0.48017    0.24700    1.000
    C979     C        0.36403    0.48766    0.24198    1.000
    O980     O        0.36797    0.49943    0.23516    1.000
    C981     C        0.34671    0.49843    0.25370    1.000
    C982     C        0.32517    0.49610    0.25720    1.000
    C983     C        0.32869    0.51399    0.26414    1.000
    C984     C        0.31065    0.49513    0.24925    1.000
    N985     N        0.37750    0.48164    0.24520    1.000
    C986     C        0.39772    0.48717    0.24033    1.000
    C987     C        0.39439    0.46806    0.23449    1.000
    O988     O        0.41027    0.46957    0.23003    1.000
    C989     C        0.41731    0.49340    0.24661    1.000
    C990     C        0.42569    0.51670    0.24988    1.000
    O991     O        0.41809    0.52774    0.24635    1.000
    O992     O        0.43590    0.52285    0.25729    1.000
    N993     N        0.37376    0.45189    0.23421    1.000
    C994     C        0.36502    0.43208    0.22851    1.000
    C995     C        0.37673    0.41896    0.22944    1.000
    O996     O        0.38762    0.41765    0.22298    1.000
    N997     N        0.37205    0.40702    0.23672    1.000
    C998     C        0.37894    0.39068    0.23759    1.000
    C999     C        0.36128    0.36880    0.23385    1.000
    O1000    O        0.34287    0.36648    0.23189    1.000
    C1001    C        0.38416    0.38862    0.24754    1.000
    C1002    C        0.40241    0.41093    0.25094    1.000
    C1003    C        0.41146    0.40922    0.26017    1.000
    C1004    C        0.43216    0.43080    0.26273    1.000
    N1005    N        0.43782    0.43020    0.27228    1.000
    N1006    N        0.36679    0.35390    0.23219    1.000
    C1007    C        0.34960    0.33272    0.22884    1.000
    C1008    C        0.33911    0.31627    0.23640    1.000
    O1009    O        0.35069    0.31226    0.24160    1.000
    C1010    C        0.35678    0.32305    0.22115    1.000
    C1011    C        0.35939    0.33535    0.21220    1.000
    C1012    C        0.36568    0.32441    0.20481    1.000
    O1013    O        0.36306    0.30560    0.20623    1.000
    O1014    O        0.37843    0.33609    0.19860    1.000
    N1015    N        0.31821    0.30855    0.23710    1.000
    C1016    C        0.30447    0.29229    0.24381    1.000
    C1017    C        0.29351    0.26934    0.23977    1.000
    O1018    O        0.27819    0.26332    0.23414    1.000
    C1019    C        0.28800    0.29813    0.24807    1.000
    C1020    C        0.29985    0.31854    0.25420    1.000
    C1021    C        0.30847    0.33921    0.25060    1.000
    C1022    C        0.30244    0.31612    0.26332    1.000
    C1023    C        0.31976    0.35756    0.25609    1.000
    C1024    C        0.31373    0.33437    0.26885    1.000
    C1025    C        0.32240    0.35503    0.26518    1.000
    O1026    O        0.33374    0.37382    0.27082    1.000
    N1027    N        0.30477    0.25932    0.24106    1.000
    C1028    C        0.29905    0.23830    0.23683    1.000
    C1029    C        0.28620    0.21885    0.24309    1.000
    O1030    O        0.29562    0.21485    0.24937    1.000
    C1031    C        0.31937    0.23763    0.23346    1.000
    C1032    C        0.31256    0.21526    0.22908    1.000
    C1033    C        0.33189    0.21200    0.22657    1.000
    C1034    C        0.34594    0.22718    0.21885    1.000
    N1035    N        0.36204    0.22103    0.21596    1.000
    N1036    N        0.26576    0.20626    0.24108    1.000
    C1037    C        0.25186    0.18613    0.24609    1.000
    C1038    C        0.25058    0.16622    0.24141    1.000
    O1039    O        0.24868    0.16441    0.23292    1.000
    C1040    C        0.22851    0.18250    0.24693    1.000
    S1041    S        0.20973    0.15773    0.25277    1.000
    N1042    N        0.25232    0.15225    0.24676    1.000
    C1043    C        0.25219    0.13246    0.24358    1.000
    C1044    C        0.23647    0.11217    0.24904    1.000
    O1045    O        0.23868    0.11210    0.25752    1.000
    C1046    C        0.27591    0.13717    0.24446    1.000
    C1047    C        0.27975    0.11797    0.24244    1.000
    C1048    C        0.30397    0.12537    0.24429    1.000
    C1049    C        0.30921    0.10669    0.24404    1.000
    N1050    N        0.33215    0.11526    0.24666    1.000
    N1051    N        0.22069    0.09540    0.24450    1.000
    C1052    C        0.20601    0.07497    0.24932    1.000
    C1053    C        0.20846    0.05517    0.24696    1.000
    O1054    O        0.20878    0.05020    0.23877    1.000
    C1055    C        0.18194    0.06941    0.24963    1.000
    C1056    C        0.17936    0.08968    0.25073    1.000
    C1057    C        0.16757    0.05388    0.24206    1.000
    N1058    N        0.21264    0.04599    0.25410    1.000
    C1059    C        0.21937    0.02911    0.25384    1.000
    C1060    C        0.20147    0.00563    0.25206    1.000
    O1061    O        0.19893    0.99910    0.24400    1.000
    C1062    C        0.23234    0.02951    0.26234    1.000
    O1063    O        0.23959    0.01392    0.26133    1.000
    N1064    N        0.19351    0.99253    0.25923    1.000
    C1065    C        0.17812    0.96860    0.25909    1.000
    C1066    C        0.18624    0.95393    0.25514    1.000
    O1067    O        0.20562    0.96196    0.25242    1.000
    C1068    C        0.15627    0.96289    0.25458    1.000
    C1069    C        0.13922    0.95617    0.26204    1.000
    O1070    O        0.13110    0.96812    0.26361    1.000
    N1071    N        0.14058    0.94354    0.26828    1.000
    N1072    N        0.17133    0.93291    0.25460    1.000
    C1073    C        0.17507    0.91619    0.25030    1.000
    C1074    C        0.15875    0.90365    0.24277    1.000
    O1075    O        0.16510    0.89802    0.23585    1.000
    C1076    C        0.17477    0.89954    0.25713    1.000
    C1077    C        0.19556    0.90905    0.26300    1.000
    C1078    C        0.19642    0.89099    0.26853    1.000
    C1079    C        0.21791    0.89976    0.27389    1.000
    N1080    N        0.21831    0.88177    0.27872    1.000
    N1081    N        0.13923    0.90183    0.24359    1.000
    C1082    C        0.12278    0.89312    0.23627    1.000
    C1083    C        0.12967    0.90880    0.22825    1.000
    O1084    O        0.11659    0.90576    0.22189    1.000
    C1085    C        0.10064    0.88950    0.23974    1.000
    N1086    N        0.14879    0.92640    0.22934    1.000
    C1087    C        0.15831    0.94554    0.22345    1.000
    C1088    C        0.18138    0.95180    0.22045    1.000
    O1089    O        0.19666    0.95932    0.22615    1.000
    C1090    C        0.15916    0.96413    0.22913    1.000
    C1091    C        0.16797    0.98571    0.22396    1.000
    C1092    C        0.15424    0.98322    0.21544    1.000
    C1093    C        0.16909    0.00327    0.23041    1.000
    N1094    N        0.18287    0.94585    0.21213    1.000
    C1095    C        0.20278    0.94734    0.20820    1.000
    C1096    C        0.22247    0.97043    0.20790    1.000
    O1097    O        0.24127    0.97308    0.20671    1.000
    C1098    C        0.19721    0.93827    0.19848    1.000
    C1099    C        0.17315    0.93131    0.19682    1.000
    C1100    C        0.16460    0.93620    0.20560    1.000
    N1101    N        0.21817    0.98654    0.20834    1.000
    C1102    C        0.23523    0.00960    0.20740    1.000
    C1103    C        0.23141    0.02535    0.21315    1.000
    O1104    O        0.21289    0.02380    0.21323    1.000
    C1105    C        0.23727    0.01655    0.19738    1.000
    N1106    N        0.24886    0.04061    0.21739    1.000
    C1107    C        0.24938    0.05826    0.22292    1.000
    C1108    C        0.24322    0.07298    0.21766    1.000
    O1109    O        0.25683    0.08742    0.21242    1.000
    C1110    C        0.27275    0.07224    0.22659    1.000
    C1111    C        0.28614    0.06220    0.22299    1.000
    C1112    C        0.27056    0.04231    0.21720    1.000
    N1113    N        0.22305    0.06882    0.21898    1.000
    C1114    C        0.21367    0.08119    0.21475    1.000
    C1115    C        0.22504    0.10546    0.21742    1.000
    O1116    O        0.22271    0.11104    0.22528    1.000
    C1117    C        0.18946    0.07003    0.21737    1.000
    C1118    C        0.17863    0.04506    0.21652    1.000
    C1119    C        0.17739    0.07888    0.21168    1.000
    C1120    C        0.15445    0.03328    0.21955    1.000
    N1121    N        0.23886    0.11922    0.21126    1.000
    C1122    C        0.25337    0.14283    0.21263    1.000
    C1123    C        0.24471    0.15683    0.20852    1.000
    O1124    O        0.23234    0.15037    0.20171    1.000
    C1125    C        0.27659    0.15072    0.20893    1.000
    C1126    C        0.28872    0.14053    0.21382    1.000
    C1127    C        0.31229    0.15194    0.21039    1.000
    O1128    O        0.32387    0.17239    0.21103    1.000
    O1129    O        0.31822    0.14200    0.20506    1.000
    N1130    N        0.24870    0.17386    0.21351    1.000
    C1131    C        0.23953    0.18807    0.21181    1.000
    C1132    C        0.25511    0.21158    0.21480    1.000
    O1133    O        0.26103    0.21524    0.22292    1.000
    C1134    C        0.21824    0.17880    0.21733    1.000
    C1135    C        0.20264    0.18627    0.21368    1.000
    C1136    C        0.19372    0.17682    0.20423    1.000
    C1137    C        0.17706    0.18328    0.20091    1.000
    N1138    N        0.16865    0.17370    0.19194    1.000
    N1139    N        0.26235    0.22700    0.20855    1.000
    C1140    C        0.27712    0.25044    0.21058    1.000
    C1141    C        0.26637    0.26429    0.20921    1.000
    O1142    O        0.25934    0.26550    0.20150    1.000
    C1143    C        0.29828    0.26025    0.20485    1.000
    O1144    O        0.31320    0.25439    0.20881    1.000
    C1145    C        0.30977    0.28534    0.20369    1.000
    N1146    N        0.26837    0.27682    0.21619    1.000
    C1147    C        0.26341    0.29450    0.21545    1.000
    C1148    C        0.28272    0.31607    0.21855    1.000
    O1149    O        0.29903    0.31602    0.22186    1.000
    C1150    C        0.24221    0.28856    0.22060    1.000
    C1151    C        0.23204    0.30245    0.21784    1.000
    C1152    C        0.24441    0.28768    0.23090    1.000
    C1153    C        0.21105    0.29568    0.22320    1.000
    N1154    N        0.28215    0.33355    0.21626    1.000
    C1155    C        0.29778    0.35650    0.21813    1.000
    C1156    C        0.28693    0.36875    0.21442    1.000
    O1157    O        0.26985    0.35802    0.20981    1.000
    C1158    C        0.31903    0.36378    0.21279    1.000
    O1159    O        0.31411    0.36030    0.20330    1.000
    N1160    N        0.29652    0.39003    0.21538    1.000
    C1161    C        0.28583    0.40076    0.21078    1.000
    C1162    C        0.29427    0.40832    0.20126    1.000
    O1163    O        0.31280    0.41116    0.19919    1.000
    C1164    C        0.28623    0.41985    0.21600    1.000
    C1165    C        0.30878    0.44065    0.21585    1.000
    C1166    C        0.30755    0.45987    0.22001    1.000
    C1167    C        0.32930    0.48121    0.21909    1.000
    N1168    N        0.32840    0.49734    0.22495    1.000
    N1169    N        0.28047    0.41119    0.19628    1.000
    C1170    C        0.28302    0.41888    0.18689    1.000
    C1171    C        0.30439    0.42398    0.18233    1.000
    O1172    O        0.30458    0.41151    0.17626    1.000
    C1173    C        0.28207    0.44011    0.18668    1.000
    N1174    N        0.32095    0.44306    0.18482    1.000
    C1175    C        0.34311    0.45460    0.18097    1.000
    C1176    C        0.34407    0.46839    0.17288    1.000
    O1177    O        0.33320    0.45903    0.16592    1.000
    C1178    C        0.35228    0.43938    0.17845    1.000
    C1179    C        0.37755    0.45181    0.17815    1.000
    C1180    C        0.38713    0.43646    0.17940    1.000
    C1181    C        0.41113    0.44880    0.18282    1.000
    N1182    N        0.41838    0.43345    0.18578    1.000
    N1183    N        0.35321    0.48946    0.17416    1.000
    C1184    C        0.35330    0.50318    0.16676    1.000
    C1185    C        0.36987    0.52737    0.16793    1.000
    O1186    O        0.38085    0.53829    0.16115    1.000
    N1187    N        0.36796    0.53481    0.17588    1.000
    C1188    C        0.37775    0.55759    0.17920    1.000
    C1189    C        0.35999    0.56338    0.18078    1.000
    O1190    O        0.34645    0.56029    0.17463    1.000
    C1191    C        0.39640    0.57563    0.17341    1.000
    C1192    C        0.40793    0.59809    0.17826    1.000
    C1193    C        0.42707    0.61485    0.17256    1.000
    O1194    O        0.44621    0.61996    0.17482    1.000
    N1195    N        0.42169    0.61757    0.16431    1.000
    N1196    N        0.35789    0.56739    0.18916    1.000
    C1197    C        0.33988    0.56976    0.19239    1.000
    C1198    C        0.33806    0.58765    0.18739    1.000
    O1199    O        0.35476    0.60553    0.18539    1.000
    C1200    C        0.34311    0.57468    0.20263    1.000
    C1201    C        0.36456    0.57549    0.20517    1.000
    C1202    C        0.37330    0.57051    0.19649    1.000
    N1203    N        0.31787    0.58262    0.18590    1.000
    C1204    C        0.31179    0.59799    0.18239    1.000
    C1205    C        0.29635    0.60061    0.18881    1.000
    O1206    O        0.27965    0.58394    0.19167    1.000
    C1207    C        0.30063    0.59027    0.17312    1.000
    C1208    C        0.31572    0.59048    0.16545    1.000
    C1209    C        0.30512    0.58993    0.15617    1.000
    N1210    N        0.31647    0.58654    0.14855    1.000
    C1211    C        0.30832    0.58044    0.14026    1.000
    N1212    N        0.28864    0.57706    0.13809    1.000
    N1213    N        0.32011    0.57784    0.13398    1.000
    N1214    N        0.30216    0.62076    0.19102    1.000
    C1215    C        0.29031    0.62699    0.19739    1.000
    C1216    C        0.26935    0.62468    0.19351    1.000
    O1217    O        0.27018    0.63371    0.18608    1.000
    C1218    C        0.30483    0.65105    0.20003    1.000
    C1219    C        0.29227    0.65846    0.20623    1.000
    C1220    C        0.30645    0.68278    0.20821    1.000
    O1221    O        0.32550    0.68984    0.21112    1.000
    O1222    O        0.30151    0.69604    0.20478    1.000
    N1223    N        0.25137    0.61283    0.19829    1.000
    C1224    C        0.22930    0.60829    0.19558    1.000
    C1225    C        0.22684    0.62858    0.19560    1.000
    O1226    O        0.23880    0.64470    0.20059    1.000
    C1227    C        0.21267    0.59155    0.20231    1.000
    C1228    C        0.22590    0.58777    0.20961    1.000
    C1229    C        0.25018    0.60154    0.20691    1.000
    N1230    N        0.21282    0.62786    0.18957    1.000
    C1231    C        0.20699    0.64475    0.18807    1.000
    C1232    C        0.18392    0.63697    0.19147    1.000
    O1233    O        0.16805    0.62125    0.18759    1.000
    C1234    C        0.20676    0.64887    0.17784    1.000
    C1235    C        0.22793    0.65419    0.17277    1.000
    C1236    C        0.24693    0.67476    0.17683    1.000
    O1237    O        0.26325    0.67409    0.17988    1.000
    N1238    N        0.24418    0.69204    0.17733    1.000
    N1239    N        0.18234    0.64621    0.19885    1.000
    C1240    C        0.16131    0.63899    0.20334    1.000
    C1241    C        0.15250    0.65471    0.20218    1.000
    O1242    O        0.15961    0.67157    0.20704    1.000
    C1243    C        0.16236    0.63391    0.21350    1.000
    C1244    C        0.14016    0.62488    0.21845    1.000
    C1245    C        0.17187    0.61863    0.21479    1.000
    N1246    N        0.13684    0.64873    0.19596    1.000
    C1247    C        0.12481    0.66052    0.19416    1.000
    C1248    C        0.10102    0.64683    0.19712    1.000
    O1249    O        0.09045    0.62653    0.19570    1.000
    C1250    C        0.12514    0.66672    0.18400    1.000
    C1251    C        0.14666    0.67275    0.17913    1.000
    C1252    C        0.16420    0.69370    0.17950    1.000
    C1253    C        0.14843    0.65663    0.17467    1.000
    C1254    C        0.18392    0.69858    0.17543    1.000
    C1255    C        0.16788    0.66122    0.17062    1.000
    C1256    C        0.18565    0.68217    0.17100    1.000
    O1257    O        0.20584    0.68657    0.16689    1.000
    N1258    N        0.09329    0.65726    0.20159    1.000
    C1259    C        0.07116    0.64529    0.20520    1.000
    C1260    C        0.05586    0.65007    0.19965    1.000
    O1261    O        0.06311    0.66897    0.19648    1.000
    C1262    C        0.07125    0.65092    0.21535    1.000
    O1263    O        0.09348    0.66271    0.21846    1.000
    C1264    C        0.05897    0.63011    0.22121    1.000
    N1265    N        0.03751    0.63286    0.19683    1.000
    C1266    C        0.02273    0.63487    0.19039    1.000
    C1267    C        0.00086    0.62795    0.19472    1.000
    O1268    O        0.98870    0.60828    0.19689    1.000
    C1269    C        0.01780    0.61948    0.18228    1.000
    C1270    C        0.03832    0.62293    0.17722    1.000
    C1271    C        0.03237    0.60497    0.17002    1.000
    C1272    C        0.05153    0.64613    0.17320    1.000
    N1273    N        0.99555    0.64305    0.19454    1.000
    C1274    C        0.97420    0.64058    0.19721    1.000
    C1275    C        0.95517    0.62388    0.19149    1.000
    O1276    O        0.95882    0.62293    0.18322    1.000
    C1277    C        0.97586    0.66276    0.19537    1.000
    C1278    C        0.99869    0.67812    0.19159    1.000
    C1279    C        0.01071    0.66505    0.19121    1.000
    N1280    N        0.93530    0.61428    0.19515    1.000
    C1281    C        0.91478    0.60146    0.19006    1.000
    C1282    C        0.91213    0.61400    0.18220    1.000
    O1283    O        0.91912    0.63417    0.18298    1.000
    C1284    C        0.89548    0.59425    0.19670    1.000
    C1285    C        0.90544    0.60306    0.20604    1.000
    C1286    C        0.93038    0.61595    0.20470    1.000
    N1287    N        0.90121    0.60201    0.17510    1.000
    C1288    C        0.89480    0.61108    0.16748    1.000
    C1289    C        0.87495    0.61368    0.16955    1.000
    O1290    O        0.86254    0.60358    0.17611    1.000
    C1291    C        0.89110    0.59793    0.15864    1.000
    O1292    O        0.87118    0.57709    0.15892    1.000
    N1293    N        0.87431    0.62949    0.16506    1.000
    C1294    C        0.85783    0.63603    0.16676    1.000
    C1295    C        0.83483    0.61726    0.16480    1.000
    O1296    O        0.81924    0.61301    0.17009    1.000
    C1297    C        0.86222    0.65558    0.16065    1.000
    C1298    C        0.88622    0.67427    0.16088    1.000
    C1299    C        0.88949    0.69392    0.15511    1.000
    N1300    N        0.91223    0.71191    0.15571    1.000
    C1301    C        0.92128    0.72826    0.14988    1.000
    N1302    N        0.90980    0.72929    0.14304    1.000
    N1303    N        0.94178    0.74382    0.15099    1.000
    N1304    N        0.83401    0.60524    0.15781    1.000
    C1305    C        0.81473    0.58502    0.15488    1.000
    C1306    C        0.80759    0.56746    0.16213    1.000
    O1307    O        0.78959    0.55015    0.16149    1.000
    C1308    C        0.82068    0.57679    0.14626    1.000
    C1309    C        0.82979    0.59426    0.13865    1.000
    C1310    C        0.83688    0.58582    0.13047    1.000
    O1311    O        0.84588    0.59814    0.12372    1.000
    O1312    O        0.83545    0.56724    0.13067    1.000
    N1313    N        0.82221    0.57105    0.16842    1.000
    C1314    C        0.81805    0.55553    0.17581    1.000
    C1315    C        0.81170    0.56302    0.18428    1.000
    O1316    O        0.79951    0.54914    0.18996    1.000
    C1317    C        0.83716    0.55169    0.17808    1.000
    C1318    C        0.82951    0.53196    0.18450    1.000
    C1319    C        0.84807    0.52756    0.18679    1.000
    O1320    O        0.84408    0.51031    0.19090    1.000
    O1321    O        0.86708    0.54004    0.18384    1.000
    N1322    N        0.81556    0.58311    0.18426    1.000
    C1323    C        0.80611    0.58934    0.19170    1.000
    C1324    C        0.78181    0.58101    0.19022    1.000
    O1325    O        0.77066    0.58378    0.19611    1.000
    C1326    C        0.81901    0.61410    0.19358    1.000
    C1327    C        0.84314    0.62208    0.19594    1.000
    S1328    S        0.85987    0.65095    0.19815    1.000
    C1329    C        0.88552    0.65180    0.20005    1.000
    N1330    N        0.77296    0.56801    0.18328    1.000
    C1331    C        0.74932    0.55656    0.18182    1.000
    C1332    C        0.73891    0.53427    0.18640    1.000
    O1333    O        0.71887    0.52364    0.18831    1.000
    C1334    C        0.74431    0.55409    0.17159    1.000
    O1335    O        0.74725    0.53697    0.16782    1.000
    C1336    C        0.75880    0.57581    0.16657    1.000
    N1337    N        0.75333    0.52946    0.18949    1.000
    C1338    C        0.74739    0.51073    0.19540    1.000
    C1339    C        0.75128    0.51904    0.20512    1.000
    O1340    O        0.76541    0.53867    0.20657    1.000
    C1341    C        0.76280    0.50166    0.19342    1.000
    C1342    C        0.75940    0.49044    0.18414    1.000
    C1343    C        0.74037    0.46666    0.18437    1.000
    C1344    C        0.73944    0.45418    0.17566    1.000
    N1345    N        0.72238    0.43112    0.17648    1.000
    N1346    N        0.73973    0.50498    0.21149    1.000
    C1347    C        0.74398    0.51212    0.22095    1.000
    C1348    C        0.75593    0.50292    0.22631    1.000
    O1349    O        0.76088    0.50810    0.23445    1.000
    C1350    C        0.72414    0.51029    0.22609    1.000
    C1351    C        0.70963    0.48679    0.22923    1.000
    O1352    O        0.69963    0.47215    0.22337    1.000
    N1353    N        0.71449    0.48314    0.23751    1.000
    N1354    N        0.76665    0.49682    0.22106    1.000
    C1355    C        0.78595    0.49583    0.22398    1.000
    C1356    C        0.80404    0.50607    0.21691    1.000
    O1357    O        0.80068    0.49994    0.20880    1.000
    C1358    C        0.78073    0.47222    0.22528    1.000
    C1359    C        0.76440    0.46036    0.23294    1.000
    C1360    C        0.76374    0.43864    0.23426    1.000
    O1361    O        0.78128    0.43831    0.23336    1.000
    N1362    N        0.74412    0.42096    0.23358    1.000
    N1363    N        0.82306    0.52097    0.21968    1.000
    C1364    C        0.84047    0.53057    0.21297    1.000
    C1365    C        0.85796    0.52423    0.21421    1.000
    O1366    O        0.85725    0.51268    0.22086    1.000
    C1367    C        0.85071    0.55543    0.21258    1.000
    C1368    C        0.83408    0.56168    0.20898    1.000
    C1369    C        0.86140    0.56672    0.22164    1.000
    N1370    N        0.87207    0.53020    0.20749    1.000
    C1371    C        0.88988    0.52554    0.20794    1.000
    C1372    C        0.91300    0.54495    0.20732    1.000
    O1373    O        0.91790    0.56081    0.20209    1.000
    C1374    C        0.88609    0.50547    0.20236    1.000
    O1375    O        0.87928    0.50596    0.19330    1.000
    N1376    N        0.92646    0.54405    0.21319    1.000
    C1377    C        0.94948    0.56098    0.21399    1.000
    C1378    C        0.96393    0.55220    0.21058    1.000
    O1379    O        0.95720    0.53203    0.21104    1.000
    C1380    C        0.95551    0.56813    0.22389    1.000
    C1381    C        0.93945    0.57403    0.22824    1.000
    C1382    C        0.94379    0.57815    0.23845    1.000
    C1383    C        0.93894    0.59292    0.22333    1.000
    N1384    N        0.97976    0.56553    0.20524    1.000
    C1385    C        0.99156    0.55787    0.19967    1.000
    C1386    C        0.01579    0.57069    0.20173    1.000
    O1387    O        0.02672    0.59039    0.19934    1.000
    C1388    C        0.98842    0.56199    0.18967    1.000
    O1389    O        0.96611    0.55664    0.18785    1.000
    C1390    C        0.99677    0.55097    0.18301    1.000
    N1391    N        0.02477    0.55938    0.20430    1.000
    C1392    C        0.04855    0.57110    0.20341    1.000
    C1393    C        0.05860    0.56247    0.19668    1.000
    O1394    O        0.05677    0.54397    0.19791    1.000
    C1395    C        0.06301    0.58289    0.21172    1.000
    S1396    S        0.07347    0.56811    0.21785    1.000
    N1397    N        0.06951    0.57709    0.19030    1.000
    C1398    C        0.08306    0.57521    0.18340    1.000
    C1399    C        0.10533    0.58216    0.18748    1.000
    O1400    O        0.11677    0.60144    0.19038    1.000
    C1401    C        0.08589    0.59065    0.17546    1.000
    C1402    C        0.09696    0.58743    0.16697    1.000
    C1403    C        0.08796    0.59196    0.15826    1.000
    C1404    C        0.12215    0.60093    0.16691    1.000
    N1405    N        0.11112    0.56698    0.18748    1.000
    C1406    C        0.13299    0.57114    0.19021    1.000
    C1407    C        0.14340    0.56623    0.18216    1.000
    O1408    O        0.13300    0.54788    0.17844    1.000
    C1409    C        0.13191    0.55694    0.19847    1.000
    C1410    C        0.15487    0.56255    0.20158    1.000
    C1411    C        0.11890    0.55856    0.20652    1.000
    N1412    N        0.16025    0.58240    0.17814    1.000
    C1413    C        0.16805    0.57768    0.16969    1.000
    C1414    C        0.19208    0.58393    0.16982    1.000
    O1415    O        0.20478    0.59747    0.17557    1.000
    C1416    C        0.16296    0.58770    0.16134    1.000
    C1417    C        0.17605    0.61289    0.16136    1.000
    C1418    C        0.17445    0.62334    0.15240    1.000
    C1419    C        0.19220    0.64788    0.15198    1.000
    N1420    N        0.19031    0.65872    0.14374    1.000
    N1421    N        0.19848    0.57661    0.16295    1.000
    C1422    C        0.22165    0.58458    0.16105    1.000
    C1423    C        0.23463    0.58203    0.16877    1.000
    O1424    O        0.25458    0.59568    0.16985    1.000
    N1425    N        0.22420    0.56376    0.17328    1.000
    C1426    C        0.23491    0.55758    0.18018    1.000
    C1427    C        0.24077    0.54058    0.17710    1.000
    O1428    O        0.23197    0.52877    0.17030    1.000
    C1429    C        0.22180    0.55046    0.18910    1.000
    C1430    C        0.19738    0.53306    0.18815    1.000
    C1431    C        0.19067    0.51118    0.18904    1.000
    C1432    C        0.18203    0.53952    0.18729    1.000
    C1433    C        0.16857    0.49567    0.18904    1.000
    C1434    C        0.15992    0.52410    0.18721    1.000
    C1435    C        0.15311    0.50215    0.18815    1.000
    N1436    N        0.25520    0.53957    0.18212    1.000
    C1437    C        0.26199    0.52367    0.18067    1.000
    C1438    C        0.27373    0.52251    0.18910    1.000
    O1439    O        0.28948    0.53993    0.19196    1.000
    C1440    C        0.27757    0.53056    0.17247    1.000
    C1441    C        0.28166    0.51203    0.16938    1.000
    C1442    C        0.26684    0.49572    0.16370    1.000
    C1443    C        0.29967    0.51126    0.17255    1.000
    C1444    C        0.26987    0.47840    0.16116    1.000
    C1445    C        0.30283    0.49405    0.17012    1.000
    C1446    C        0.28793    0.47761    0.16442    1.000
    O1447    O        0.29143    0.45993    0.16194    1.000
    N1448    N        0.26850    0.50313    0.19239    1.000
    C1449    C        0.25076    0.48160    0.18912    1.000
    C1450    C        0.22771    0.47632    0.19163    1.000
    O1451    O        0.22448    0.49024    0.19547    1.000
    C1452    C        0.25417    0.46396    0.19358    1.000
    C1453    C        0.27374    0.47572    0.20003    1.000
    C1454    C        0.28230    0.50030    0.19908    1.000
    N1455    N        0.21219    0.45722    0.18898    1.000
    C1456    C        0.18869    0.44947    0.18995    1.000
    C1457    C        0.18134    0.44716    0.19982    1.000
    O1458    O        0.16272    0.44441    0.20166    1.000
    C1459    C        0.17713    0.42683    0.18552    1.000
    O1460    O        0.19004    0.41685    0.18765    1.000
    N1461    N        0.19592    0.44788    0.20567    1.000
    C1462    C        0.19364    0.44598    0.21558    1.000
    C1463    C        0.19298    0.46512    0.21990    1.000
    O1464    O        0.20986    0.48111    0.22303    1.000
    C1465    C        0.21333    0.44564    0.21982    1.000
    C1466    C        0.21534    0.42645    0.21621    1.000
    O1467    O        0.23349    0.42714    0.21697    1.000
    O1468    O        0.19864    0.40923    0.21347    1.000
    N1469    N        0.17382    0.46275    0.22056    1.000
    C1470    C        0.17020    0.47938    0.22469    1.000
    C1471    C        0.15076    0.46968    0.23127    1.000
    O1472    O        0.13710    0.44953    0.23118    1.000
    C1473    C        0.16630    0.49158    0.21687    1.000
    C1474    C        0.17137    0.51469    0.21940    1.000
    C1475    C        0.14353    0.47819    0.21253    1.000
    C1476    C        0.16447    0.52446    0.21168    1.000
    N1477    N        0.14891    0.48340    0.23673    1.000
    C1478    C        0.13035    0.47712    0.24279    1.000
    C1479    C        0.12492    0.49528    0.24394    1.000
    O1480    O        0.13655    0.51103    0.24908    1.000
    C1481    C        0.13591    0.47225    0.25222    1.000
    N1482    N        0.10640    0.49143    0.24031    1.000
    C1483    C        0.09628    0.50516    0.24123    1.000
    C1484    C        0.07771    0.49577    0.24820    1.000
    O1485    O        0.06557    0.47542    0.24894    1.000
    C1486    C        0.08683    0.50589    0.23185    1.000
    C1487    C        0.07767    0.52163    0.23149    1.000
    C1488    C        0.10315    0.50993    0.22411    1.000
    N1489    N        0.07555    0.51003    0.25322    1.000
    C1490    C        0.05779    0.50468    0.25965    1.000
    C1491    C        0.05156    0.52241    0.25978    1.000
    O1492    O        0.06528    0.54147    0.25748    1.000
    C1493    C        0.06546    0.50308    0.26923    1.000
    C1494    C        0.06732    0.48242    0.27022    1.000
    C1495    C        0.08340    0.48576    0.27775    1.000
    O1496    O        0.09131    0.47325    0.27778    1.000
    O1497    O        0.09417    0.50442    0.28132    1.000
    N1498    N        0.03218    0.51690    0.26294    1.000
    C1499    C        0.02431    0.53265    0.26389    1.000
    C1500    C        0.02093    0.53733    0.27374    1.000
    O1501    O        0.01341    0.52231    0.27961    1.000
    C1502    C        0.00279    0.52464    0.25845    1.000
    C1503    C        0.00604    0.52928    0.24815    1.000
    C1504    C        0.00832    0.51765    0.24140    1.000
    C1505    C        0.00668    0.54739    0.24388    1.000
    N1506    N        0.01035    0.52827    0.23305    1.000
    C1507    C        0.00928    0.54542    0.23453    1.000
    C1508    C        0.00507    0.56472    0.24744    1.000
    C1509    C        0.01028    0.56065    0.22834    1.000
    C1510    C        0.00622    0.58018    0.24117    1.000
    C1511    C        0.00874    0.57810    0.23191    1.000
    N1512    N        0.02455    0.55735    0.27533    1.000
    C1513    C        0.01889    0.56391    0.28397    1.000
    C1514    C        0.00564    0.57535    0.28270    1.000
    O1515    O        0.01056    0.58872    0.27627    1.000
    C1516    C        0.03939    0.57957    0.28939    1.000
    C1517    C        0.05340    0.56924    0.29153    1.000
    C1518    C        0.07314    0.58625    0.29676    1.000
    O1519    O        0.07423    0.60427    0.29841    1.000
    O1520    O        0.09030    0.58491    0.29699    1.000
    N1521    N        0.99212    0.57266    0.28949    1.000
    C1522    C        0.98028    0.58464    0.29090    1.000
    C1523    C        0.98903    0.60017    0.29893    1.000
    O1524    O        0.98709    0.59241    0.30678    1.000
    C1525    C        0.95605    0.56929    0.29294    1.000
    O1526    O        0.94545    0.58209    0.29361    1.000
    N1527    N        0.99684    0.62086    0.29664    1.000
    C1528    C        0.00678    0.64042    0.30239    1.000
    C1529    C        0.02796    0.64462    0.30679    1.000
    O1530    O        0.04424    0.66358    0.30685    1.000
    C1531    C        0.99091    0.64009    0.30959    1.000
    C1532    C        0.97456    0.64524    0.30507    1.000
    O1533    O        0.98101    0.66408    0.30187    1.000
    N1534    N        0.95386    0.62990    0.30613    1.000
    N1535    N        0.02774    0.62723    0.30990    1.000
    C1536    C        0.04672    0.62735    0.31387    1.000
    C1537    C        0.04146    0.60439    0.31657    1.000
    O1538    O        0.05473    0.60167    0.32128    1.000
    N1539    N        0.02161    0.58865    0.31460    1.000
    C1540    C        0.01342    0.56636    0.31792    1.000
    C1541    C        0.00129    0.54802    0.31107    1.000
    O1542    O        0.99273    0.55134    0.30429    1.000
    C1543    C        0.99890    0.56330    0.32610    1.000
    C1544    C        0.01360    0.57617    0.33414    1.000
    C1545    C        0.99852    0.57549    0.34154    1.000
    O1546    O        0.98927    0.58656    0.34012    1.000
    N1547    N        0.98933    0.55643    0.34577    1.000
    N1548    N        0.00195    0.52982    0.31244    1.000
    C1549    C        0.99650    0.51302    0.30548    1.000
    C1550    C        0.97421    0.50452    0.30117    1.000
    O1551    O        0.95761    0.49763    0.30612    1.000
    C1552    C        0.99815    0.49392    0.30974    1.000
    C1553    C        0.00699    0.50086    0.31938    1.000
    C1554    C        0.00960    0.52370    0.32076    1.000
    N1555    N        0.97422    0.50346    0.29227    1.000
    C1556    C        0.95411    0.49292    0.28706    1.000
    C1557    C        0.95002    0.47089    0.28362    1.000
    O1558    O        0.96564    0.46975    0.28025    1.000
    C1559    C        0.95595    0.50710    0.27892    1.000
    C1560    C        0.93299    0.49984    0.27526    1.000
    C1561    C        0.92171    0.50841    0.28148    1.000
    O1562    O        0.90165    0.49647    0.28315    1.000
    O1563    O        0.93006    0.52876    0.28225    1.000
    N1564    N        0.93146    0.45351    0.28575    1.000
    C1565    C        0.92684    0.43126    0.28340    1.000
    C1566    C        0.91478    0.42369    0.27442    1.000
    O1567    O        0.90558    0.40397    0.27202    1.000
    C1568    C        0.91317    0.41509    0.29094    1.000
    C1569    C        0.92824    0.42107    0.29910    1.000
    O1570    O        0.92067    0.41278    0.30670    1.000
    N1571    N        0.94915    0.43033    0.29695    1.000
    N1572    N        0.91118    0.43833    0.27069    1.000
    C1573    C        0.89646    0.43344    0.26301    1.000
    C1574    C        0.90847    0.43980    0.25406    1.000
    O1575    O        0.90382    0.45014    0.24840    1.000
    C1576    C        0.88478    0.44674    0.26388    1.000
    C1577    C        0.86362    0.43239    0.26891    1.000
    O1578    O        0.85881    0.44039    0.27553    1.000
    N1579    N        0.85663    0.41133    0.26771    1.000
    N1580    N        0.92442    0.43578    0.25299    1.000
    C1581    C        0.93626    0.44235    0.24440    1.000
    C1582    C        0.93652    0.42356    0.23947    1.000
    O1583    O        0.93441    0.40768    0.24413    1.000
    C1584    C        0.95927    0.46235    0.24535    1.000
    C1585    C        0.97481    0.45684    0.25045    1.000
    C1586    C        0.97693    0.45967    0.25969    1.000
    C1587    C        0.98660    0.44917    0.24584    1.000
    C1588    C        0.99072    0.45470    0.26444    1.000
    C1589    C        0.00036    0.44400    0.25051    1.000
    C1590    C        0.00235    0.44685    0.25984    1.000
    O1591    O        0.01653    0.44147    0.26474    1.000
    N1592    N        0.93918    0.42591    0.23044    1.000
    C1593    C        0.94187    0.41128    0.22401    1.000
    C1594    C        0.96208    0.42387    0.21817    1.000
    O1595    O        0.96446    0.44006    0.21383    1.000
    C1596    C        0.92271    0.39981    0.21738    1.000
    C1597    C        0.90076    0.38589    0.22218    1.000
    C1598    C        0.90054    0.36883    0.22870    1.000
    C1599    C        0.87908    0.35835    0.23434    1.000
    N1600    N        0.88040    0.34618    0.24221    1.000
    N1601    N        0.97642    0.41739    0.21853    1.000
    C1602    C        0.99710    0.42744    0.21351    1.000
    C1603    C        0.99607    0.41247    0.20583    1.000
    O1604    O        0.98989    0.39261    0.20742    1.000
    C1605    C        0.01601    0.43105    0.21987    1.000
    O1606    O        0.01946    0.44657    0.22689    1.000
    C1607    C        0.03752    0.43790    0.21482    1.000
    N1608    N        0.00241    0.42181    0.19780    1.000
    C1609    C        0.00486    0.41000    0.19016    1.000
    C1610    C        0.02646    0.41028    0.19077    1.000
    O1611    O        0.04335    0.42647    0.19391    1.000
    C1612    C        0.00303    0.41914    0.18090    1.000
    O1613    O        0.02377    0.43689    0.17795    1.000
    C1614    C        0.98511    0.42555    0.18102    1.000
    N1615    N        0.02539    0.39276    0.18768    1.000
    C1616    C        0.04435    0.39000    0.18616    1.000
    C1617    C        0.06176    0.40774    0.18014    1.000
    O1618    O        0.05658    0.41671    0.17401    1.000
    C1619    C        0.03567    0.36735    0.18178    1.000
    C1620    C        0.01068    0.35640    0.18147    1.000
    C1621    C        0.00485    0.37315    0.18512    1.000
    N1622    N        0.08188    0.41401    0.18232    1.000
    C1623    C        0.10040    0.43004    0.17709    1.000
    C1624    C        0.09834    0.42057    0.16770    1.000
    O1625    O        0.09404    0.40109    0.16691    1.000
    C1626    C        0.12147    0.43265    0.18138    1.000
    C1627    C        0.11419    0.41615    0.18915    1.000
    C1628    C        0.08901    0.40470    0.18953    1.000
    N1629    N        0.09889    0.43291    0.16100    1.000
    C1630    C        0.09828    0.42608    0.15162    1.000
    C1631    C        0.11736    0.44302    0.14602    1.000
    O1632    O        0.12652    0.46286    0.14822    1.000
    C1633    C        0.07620    0.41999    0.14733    1.000
    C1634    C        0.05723    0.39993    0.15212    1.000
    C1635    C        0.07226    0.43934    0.14729    1.000
    N1636    N        0.12671    0.43517    0.14069    1.000
    C1637    C        0.14729    0.45046    0.13628    1.000
    C1638    C        0.14518    0.46209    0.12801    1.000
    O1639    O        0.13101    0.45241    0.12202    1.000
    C1640    C        0.16458    0.44335    0.13528    1.000
    C1641    C        0.15794    0.42410    0.12868    1.000
    C1642    C        0.17220    0.43069    0.12000    1.000
    C1643    C        0.15705    0.40419    0.13343    1.000
    N1644    N        0.15636    0.48303    0.12891    1.000
    C1645    C        0.15642    0.49847    0.12254    1.000
    C1646    C        0.17223    0.50231    0.11479    1.000
    O1647    O        0.18487    0.49457    0.11501    1.000
    C1648    C        0.16463    0.51963    0.12797    1.000
    C1649    C        0.16087    0.53579    0.12257    1.000
    O1650    O        0.14738    0.52869    0.11614    1.000
    O1651    O        0.16431    0.55310    0.12645    1.000
    N1652    N        0.17093    0.51345    0.10804    1.000
    C1653    C        0.18493    0.52011    0.10005    1.000
    C1654    C        0.20888    0.53195    0.10283    1.000
    O1655    O        0.22202    0.52751    0.09898    1.000
    C1656    C        0.18042    0.53594    0.09453    1.000
    O1657    O        0.15749    0.52568    0.09248    1.000
    N1658    N        0.21342    0.54503    0.10980    1.000
    C1659    C        0.23512    0.55846    0.11391    1.000
    C1660    C        0.24708    0.54614    0.11632    1.000
    O1661    O        0.26745    0.55614    0.11729    1.000
    C1662    C        0.23243    0.56909    0.12259    1.000
    C1663    C        0.25475    0.58743    0.12570    1.000
    O1664    O        0.25651    0.59546    0.13348    1.000
    O1665    O        0.26854    0.59918    0.11978    1.000
    N1666    N        0.23495    0.52616    0.11899    1.000
    C1667    C        0.24536    0.51579    0.12388    1.000
    C1668    C        0.24584    0.52047    0.13400    1.000
    O1669    O        0.25688    0.51625    0.13943    1.000
    N1670    N        0.23224    0.52694    0.13643    1.000
    C1671    C        0.22716    0.52918    0.14583    1.000
    C1672    C        0.20440    0.51118    0.14842    1.000
    O1673    O        0.19211    0.49925    0.14217    1.000
    C1674    C        0.22684    0.55041    0.14666    1.000
    O1675    O        0.24904    0.56723    0.14690    1.000
    N1676    N        0.19821    0.51090    0.15699    1.000
    C1677    C        0.17540    0.49606    0.15978    1.000
    C1678    C        0.16442    0.50913    0.16212    1.000
    O1679    O        0.17579    0.52889    0.16429    1.000
    C1680    C        0.17292    0.48062    0.16769    1.000
    C1681    C        0.17525    0.46126    0.16435    1.000
    C1682    C        0.15704    0.44242    0.16149    1.000
    C1683    C        0.19553    0.46312    0.16374    1.000
    C1684    C        0.15893    0.42506    0.15811    1.000
    C1685    C        0.19768    0.44603    0.16033    1.000
    C1686    C        0.17933    0.42688    0.15752    1.000
    N1687    N        0.14342    0.49876    0.16151    1.000
    C1688    C        0.13177    0.50944    0.16482    1.000
    C1689    C        0.11070    0.49327    0.16947    1.000
    O1690    O        0.10249    0.47313    0.16799    1.000
    C1691    C        0.12829    0.52372    0.15769    1.000
    C1692    C        0.10893    0.51082    0.15115    1.000
    C1693    C        0.08905    0.50946    0.15288    1.000
    C1694    C        0.11114    0.49989    0.14382    1.000
    C1695    C        0.07111    0.49686    0.14730    1.000
    C1696    C        0.09336    0.48738    0.13818    1.000
    C1697    C        0.07331    0.48582    0.13995    1.000
    N1698    N        0.10247    0.50213    0.17474    1.000
    C1699    C        0.08091    0.48937    0.17879    1.000
    C1700    C        0.07010    0.50288    0.18057    1.000
    O1701    O        0.08131    0.52341    0.18052    1.000
    C1702    C        0.07900    0.47446    0.18700    1.000
    C1703    C        0.09177    0.48561    0.19585    1.000
    C1704    C        0.08081    0.49533    0.20195    1.000
    C1705    C        0.09600    0.46957    0.20127    1.000
    N1706    N        0.04924    0.49088    0.18246    1.000
    C1707    C        0.03540    0.49935    0.18545    1.000
    C1708    C        0.02435    0.48769    0.19409    1.000
    O1709    O        0.01763    0.46762    0.19465    1.000
    C1710    C        0.01734    0.49493    0.17849    1.000
    C1711    C        0.02587    0.51080    0.17039    1.000
    C1712    C        0.03165    0.50463    0.16244    1.000
    C1713    C        0.02734    0.53095    0.17108    1.000
    C1714    C        0.03889    0.51857    0.15503    1.000
    C1715    C        0.03448    0.54505    0.16371    1.000
    C1716    C        0.04018    0.53877    0.15566    1.000
    O1717    O        0.04746    0.55339    0.14801    1.000
    N1718    N        0.02032    0.49925    0.19983    1.000
    C1719    C        0.00760    0.48980    0.20806    1.000
    C1720    C        0.99047    0.49675    0.20953    1.000
    O1721    O        0.99509    0.51628    0.20845    1.000
    C1722    C        0.02374    0.49618    0.21611    1.000
    O1723    O        0.01389    0.48241    0.22386    1.000
    N1724    N        0.97046    0.48092    0.21054    1.000
    C1725    C        0.95231    0.48525    0.21061    1.000
    C1726    C        0.94019    0.48131    0.21960    1.000
    O1727    O        0.92605    0.46240    0.22204    1.000
    C1728    C        0.93602    0.47169    0.20319    1.000
    C1729    C        0.91888    0.47869    0.20206    1.000
    C1730    C        0.90190    0.46445    0.19493    1.000
    C1731    C        0.88982    0.43998    0.19752    1.000
    N1732    N        0.87774    0.43673    0.20599    1.000
    N1733    N        0.94390    0.49922    0.22381    1.000
    C1734    C        0.93321    0.49961    0.23229    1.000
    C1735    C        0.91186    0.49915    0.23037    1.000
    O1736    O        0.91227    0.51630    0.22781    1.000
    C1737    C        0.94820    0.52061    0.23788    1.000
    C1738    C        0.94066    0.51957    0.24784    1.000
    C1739    C        0.93978    0.50022    0.25294    1.000
    C1740    C        0.95449    0.54106    0.25305    1.000
    N1741    N        0.89399    0.48133    0.23261    1.000
    C1742    C        0.87340    0.48133    0.23182    1.000
    C1743    C        0.86674    0.48841    0.24045    1.000
    O1744    O        0.86097    0.47631    0.24737    1.000
    C1745    C        0.85541    0.45861    0.22898    1.000
    O1746    O        0.86455    0.45055    0.22234    1.000
    C1747    C        0.83536    0.45918    0.22523    1.000
    N1748    N        0.86755    0.50753    0.24009    1.000
    C1749    C        0.86034    0.51600    0.24772    1.000
    C1750    C        0.83974    0.51724    0.24570    1.000
    O1751    O        0.83132    0.51281    0.23794    1.000
    C1752    C        0.87898    0.53851    0.25077    1.000
    C1753    C        0.89933    0.53730    0.25370    1.000
    C1754    C        0.88408    0.55640    0.24366    1.000
    N1755    N        0.83080    0.52186    0.25242    1.000
    C1756    C        0.81115    0.52343    0.25105    1.000
    C1757    C        0.81723    0.54559    0.24714    1.000
    O1758    O        0.83560    0.56173    0.24895    1.000
    C1759    C        0.79963    0.52076    0.26020    1.000
    C1760    C        0.77652    0.51675    0.25881    1.000
    O1761    O        0.76741    0.52047    0.26537    1.000
    O1762    O        0.76441    0.50159    0.25347    1.000
    N1763    N        0.80410    0.54531    0.24088    1.000
    C1764    C        0.80811    0.56505    0.23610    1.000
    C1765    C        0.81272    0.58321    0.24283    1.000
    O1766    O        0.82987    0.60136    0.24206    1.000
    C1767    C        0.78750    0.55956    0.23065    1.000
    C1768    C        0.78750    0.57868    0.22557    1.000
    C1769    C        0.76501    0.57025    0.22096    1.000
    C1770    C        0.76273    0.58795    0.21592    1.000
    N1771    N        0.74207    0.57797    0.21083    1.000
    N1772    N        0.79983    0.57725    0.24995    1.000
    C1773    C        0.80277    0.59240    0.25735    1.000
    C1774    C        0.82490    0.60152    0.26201    1.000
    O1775    O        0.83490    0.62102    0.26464    1.000
    C1776    C        0.78504    0.58062    0.26463    1.000
    O1777    O        0.78891    0.56536    0.26964    1.000
    N1778    N        0.83126    0.58711    0.26337    1.000
    C1779    C        0.85127    0.59182    0.26825    1.000
    C1780    C        0.87163    0.60798    0.26301    1.000
    O1781    O        0.88867    0.62153    0.26716    1.000
    C1782    C        0.85204    0.57060    0.26972    1.000
    C1783    C        0.84321    0.56021    0.27904    1.000
    C1784    C        0.85648    0.57630    0.28666    1.000
    N1785    N        0.85903    0.56484    0.29448    1.000
    C1786    C        0.87656    0.57396    0.29976    1.000
    N1787    N        0.89222    0.59416    0.29828    1.000
    N1788    N        0.87844    0.56356    0.30676    1.000
    N1789    N        0.86880    0.60782    0.25419    1.000
    C1790    C        0.88609    0.62396    0.24844    1.000
    C1791    C        0.88562    0.64541    0.24842    1.000
    O1792    O        0.90273    0.66333    0.25011    1.000
    C1793    C        0.88400    0.61441    0.23878    1.000
    C1794    C        0.90090    0.63118    0.23207    1.000
    C1795    C        0.89779    0.64308    0.22570    1.000
    C1796    C        0.92315    0.63787    0.23159    1.000
    N1797    N        0.91771    0.65712    0.22135    1.000
    C1798    C        0.93242    0.65403    0.22478    1.000
    C1799    C        0.93559    0.63129    0.23645    1.000
    C1800    C        0.95425    0.66397    0.22240    1.000
    C1801    C        0.95759    0.64133    0.23403    1.000
    C1802    C        0.96660    0.65710    0.22718    1.000
    N1803    N        0.86621    0.64330    0.24708    1.000
    C1804    C        0.86298    0.66219    0.24631    1.000
    C1805    C        0.86892    0.67671    0.25469    1.000
    O1806    O        0.87340    0.69632    0.25400    1.000
    C1807    C        0.83941    0.65491    0.24351    1.000
    C1808    C        0.83542    0.64781    0.23353    1.000
    C1809    C        0.82434    0.65932    0.22922    1.000
    O1810    O        0.83588    0.67933    0.22727    1.000
    N1811    N        0.80342    0.65003    0.23135    1.000
    N1812    N        0.87008    0.66770    0.26230    1.000
    C1813    C        0.87659    0.68037    0.27073    1.000
    C1814    C        0.90127    0.69328    0.27189    1.000
    O1815    O        0.90881    0.70172    0.27947    1.000
    C1816    C        0.86578    0.66567    0.27905    1.000
    C1817    C        0.84093    0.65679    0.27923    1.000
    C1818    C        0.83081    0.64143    0.28730    1.000
    O1819    O        0.84265    0.63688    0.29214    1.000
    N1820    N        0.80930    0.62967    0.28713    1.000
    N1821    N        0.91299    0.69699    0.26440    1.000
    C1822    C        0.93706    0.71083    0.26391    1.000
    C1823    C        0.94952    0.70391    0.27035    1.000
    O1824    O        0.96619    0.71780    0.27463    1.000
    N1825    N        0.94036    0.68281    0.27149    1.000
    C1826    C        0.94873    0.67239    0.27759    1.000
    C1827    C        0.96768    0.67108    0.27330    1.000
    O1828    O        0.96646    0.66606    0.26507    1.000
    C1829    C        0.92992    0.64897    0.27915    1.000
    C1830    C        0.93517    0.63870    0.28711    1.000
    O1831    O        0.92629    0.63769    0.29463    1.000
    N1832    N        0.94983    0.63258    0.28557    1.000
    N1833    N        0.98487    0.67602    0.27839    1.000
    C1834    C        0.00394    0.67553    0.27467    1.000
    C1835    C        0.00112    0.65283    0.27398    1.000
    O1836    O        0.99678    0.64119    0.28094    1.000
    C1837    C        0.02507    0.69065    0.27976    1.000
    C1838    C        0.04223    0.68338    0.27896    1.000
    C1839    C        0.03423    0.71382    0.27607    1.000
    N1840    N        0.00473    0.64771    0.26577    1.000
    C1841    C        0.00670    0.62858    0.26360    1.000
    C1842    C        0.02946    0.63510    0.26010    1.000
    O1843    O        0.04309    0.65499    0.25877    1.000
    C1844    C        0.98916    0.61350    0.25685    1.000
    C1845    C        0.96615    0.60530    0.26079    1.000
    C1846    C        0.95483    0.61588    0.25863    1.000
    C1847    C        0.95689    0.58733    0.26640    1.000
    C1848    C        0.93410    0.60851    0.26208    1.000
    C1849    C        0.93617    0.57982    0.26986    1.000
    C1850    C        0.92473    0.59042    0.26771    1.000
    N1851    N        0.03454    0.61956    0.26065    1.000
    C1852    C        0.05668    0.62385    0.25899    1.000
    C1853    C        0.05838    0.60388    0.25645    1.000
    O1854    O        0.05326    0.58906    0.26223    1.000
    C1855    C        0.06974    0.63253    0.26775    1.000
    O1856    O        0.09071    0.63474    0.26618    1.000
    N1857    N        0.07023    0.60587    0.24925    1.000
    C1858    C        0.07622    0.58906    0.24722    1.000
    C1859    C        0.09955    0.59500    0.24982    1.000
    O1860    O        0.11494    0.61426    0.24885    1.000
    C1861    C        0.06858    0.57807    0.23771    1.000
    S1862    S        0.08903    0.58679    0.22883    1.000
    N1863    N        0.10108    0.58061    0.25499    1.000
    C1864    C        0.12106    0.58396    0.25961    1.000
    C1865    C        0.12915    0.56958    0.25543    1.000
    O1866    O        0.11879    0.54932    0.25695    1.000
    C1867    C        0.11600    0.57693    0.26966    1.000
    O1868    O        0.10567    0.58723    0.27442    1.000
    N1869    N        0.14556    0.57933    0.24963    1.000
    C1870    C        0.15379    0.56739    0.24413    1.000
    C1871    C        0.17407    0.56799    0.24815    1.000
    O1872    O        0.18971    0.58556    0.25111    1.000
    C1873    C        0.15768    0.57557    0.23410    1.000
    C1874    C        0.16800    0.56521    0.22802    1.000
    C1875    C        0.13693    0.57380    0.22970    1.000
    N1876    N        0.17343    0.54907    0.24854    1.000
    C1877    C        0.19139    0.54637    0.25194    1.000
    C1878    C        0.20008    0.53651    0.24514    1.000
    O1879    O        0.18872    0.51679    0.24298    1.000
    C1880    C        0.18344    0.53110    0.26001    1.000
    C1881    C        0.17709    0.54140    0.26766    1.000
    S1882    S        0.15765    0.52114    0.27524    1.000
    C1883    C        0.16901    0.50306    0.27518    1.000
    N1884    N        0.22008    0.54986    0.24242    1.000
    C1885    C        0.23217    0.54408    0.23600    1.000
    C1886    C        0.25640    0.55691    0.23830    1.000
    O1887    O        0.26465    0.57632    0.24099    1.000
    C1888    C        0.22851    0.54987    0.22621    1.000
    C1889    C        0.24069    0.54459    0.21881    1.000
    N1890    N        0.23791    0.52352    0.21784    1.000
    C1891    C        0.25545    0.55787    0.21267    1.000
    C1892    C        0.25183    0.52439    0.21088    1.000
    N1893    N        0.26278    0.54593    0.20763    1.000
    N1894    N        0.26680    0.54614    0.23728    1.000
    C1895    C        0.29042    0.55517    0.23799    1.000
    C1896    C        0.30434    0.57879    0.23469    1.000
    O1897    O        0.32132    0.59222    0.23885    1.000
    C1898    C        0.29559    0.54076    0.23192    1.000
    C1899    C        0.31996    0.54838    0.23172    1.000
    C1900    C        0.32311    0.53618    0.22393    1.000
    O1901    O        0.30707    0.52323    0.21910    1.000
    O1902    O        0.34211    0.54050    0.22189    1.000
    N1903    N        0.29897    0.58397    0.22705    1.000
    C1904    C        0.31368    0.60589    0.22355    1.000
    C1905    C        0.30832    0.62341    0.22657    1.000
    O1906    O        0.31647    0.64133    0.22242    1.000
    C1907    C        0.31628    0.60551    0.21322    1.000
    N1908    N        0.29663    0.61916    0.23412    1.000
    C1909    C        0.29089    0.63466    0.23827    1.000
    C1910    C        0.30465    0.64577    0.24666    1.000
    O1911    O        0.31785    0.63993    0.24940    1.000
    C1912    C        0.26641    0.62355    0.24075    1.000
    C1913    C        0.25155    0.61610    0.23236    1.000
    C1914    C        0.22732    0.60252    0.23496    1.000
    C1915    C        0.25610    0.63561    0.22627    1.000
    N1916    N        0.30505    0.66412    0.24894    1.000
    C1917    C        0.32088    0.68060    0.25516    1.000
    C1918    C        0.32577    0.67154    0.26360    1.000
    O1919    O        0.34521    0.67741    0.26554    1.000
    C1920    C        0.31516    0.69814    0.25793    1.000
    C1921    C        0.33582    0.71850    0.26158    1.000
    N1922    N        0.35669    0.72108    0.26014    1.000
    C1923    C        0.33793    0.73585    0.26621    1.000
    C1924    C        0.37219    0.74110    0.26408    1.000
    N1925    N        0.36029    0.75028    0.26790    1.000
    N1926    N        0.30918    0.65638    0.26796    1.000
    C1927    C        0.31236    0.64487    0.27562    1.000
    C1928    C        0.29622    0.62063    0.27476    1.000
    O1929    O        0.28250    0.61145    0.28104    1.000
    C1930    C        0.30760    0.65200    0.28486    1.000
    C1931    C        0.32831    0.67092    0.28893    1.000
    O1932    O        0.33682    0.66726    0.29564    1.000
    N1933    N        0.33925    0.68808    0.28370    1.000
    N1934    N        0.29457    0.61314    0.26639    1.000
    C1935    C        0.27654    0.59225    0.26320    1.000
    C1936    C        0.25442    0.59114    0.26370    1.000
    O1937    O        0.23733    0.57313    0.26238    1.000
    C1938    C        0.27478    0.57279    0.26847    1.000
    C1939    C        0.29401    0.56948    0.26617    1.000
    N1940    N        0.29974    0.55722    0.27173    1.000
    C1941    C        0.30769    0.57714    0.25915    1.000
    C1942    C        0.31814    0.55748    0.26781    1.000
    N1943    N        0.32320    0.57025    0.25986    1.000
    N1944    N        0.25436    0.60929    0.26574    1.000
    C1945    C        0.23418    0.61003    0.26714    1.000
    C1946    C        0.23522    0.63039    0.26303    1.000
    O1947    O        0.25221    0.64866    0.26408    1.000
    C1948    C        0.23073    0.60970    0.27751    1.000
    C1949    C        0.20901    0.60867    0.27990    1.000
    C1950    C        0.20880    0.62769    0.28191    1.000
    C1951    C        0.18968    0.58890    0.27965    1.000
    C1952    C        0.18913    0.62715    0.28355    1.000
    C1953    C        0.16985    0.58808    0.28132    1.000
    C1954    C        0.16964    0.60736    0.28320    1.000
    O1955    O        0.14918    0.60689    0.28446    1.000
    N1956    N        0.21672    0.62753    0.25941    1.000
    C1957    C        0.21225    0.64490    0.25604    1.000
    C1958    C        0.18821    0.63826    0.25682    1.000
    O1959    O        0.17328    0.61860    0.25758    1.000
    C1960    C        0.21804    0.65052    0.24589    1.000
    O1961    O        0.23655    0.64825    0.24346    1.000
    C1962    C        0.22256    0.67357    0.24317    1.000
    N1963    N        0.18448    0.65434    0.25634    1.000
    C1964    C        0.16261    0.65061    0.25719    1.000
    C1965    C        0.15964    0.66749    0.25198    1.000
    O1966    O        0.17555    0.68661    0.25134    1.000
    C1967    C        0.15954    0.65223    0.26732    1.000
    C1968    C        0.13548    0.64200    0.26960    1.000
    C1969    C        0.13374    0.64011    0.27984    1.000
    O1970    O        0.11554    0.62669    0.28320    1.000
    N1971    N        0.15280    0.64660    0.28380    1.000
    N1972    N        0.14124    0.65970    0.24733    1.000
    C1973    C        0.13532    0.67305    0.24164    1.000
    C1974    C        0.11209    0.66817    0.24345    1.000
    O1975    O        0.09737    0.64894    0.24510    1.000
    C1976    C        0.13890    0.67063    0.23146    1.000
    C1977    C        0.15860    0.69143    0.22733    1.000
    C1978    C        0.15111    0.70152    0.21974    1.000
    C1979    C        0.17034    0.72089    0.21489    1.000
    N1980    N        0.16211    0.72776    0.20715    1.000
    N1981    N        0.10991    0.68551    0.24448    1.000
    C1982    C        0.08988    0.68472    0.24775    1.000
    C1983    C        0.07540    0.68732    0.24071    1.000
    O1984    O        0.08278    0.70445    0.23602    1.000
    C1985    C        0.09576    0.70237    0.25499    1.000
    O1986    O        0.07627    0.70330    0.25679    1.000
    N1987    N        0.05436    0.67300    0.24168    1.000
    C1988    C        0.03626    0.67326    0.23691    1.000
    C1989    C        0.02348    0.68019    0.24304    1.000
    O1990    O        0.01236    0.66806    0.24941    1.000
    C1991    C        0.01990    0.64992    0.23398    1.000
    C1992    C        0.01843    0.64771    0.22369    1.000
    C1993    C        0.99853    0.62557    0.22114    1.000
    C1994    C        0.01743    0.66704    0.21934    1.000
    N1995    N        0.02450    0.69866    0.24109    1.000
    C1996    C        0.01215    0.70689    0.24605    1.000
    C1997    C        0.00253    0.71624    0.23944    1.000
    O1998    O        0.01357    0.72709    0.23273    1.000
    C1999    C        0.02653    0.72473    0.25305    1.000
    O2000    O        0.04337    0.74408    0.24870    1.000
    N2001    N        0.98288    0.71219    0.24142    1.000
    C2002    C        0.97088    0.72038    0.23623    1.000
    C2003    C        0.98342    0.74531    0.23541    1.000
    O2004    O        0.99636    0.75651    0.24168    1.000
    C2005    C        0.94868    0.71251    0.24091    1.000
    C2006    C        0.93423    0.71964    0.23586    1.000
    C2007    C        0.92961    0.71104    0.22607    1.000
    C2008    C        0.91296    0.71284    0.24111    1.000
    N2009    N        0.98662    0.75350    0.22757    1.000
    C2010    C        0.91150    0.95911    0.23579    1.000
    C2011    C        0.92100    0.96740    0.22629    1.000
    C2012    C        0.94059    0.99087    0.22655    1.000
    C2013    C        0.93373    0.00599    0.23132    1.000
    C2014    C        0.92427    0.99693    0.24076    1.000
    C2015    C        0.91513    0.01021    0.24533    1.000
    C2016    C        0.91775    0.94159    0.21445    1.000
    C2017    C        0.90107    0.94647    0.21008    1.000
    N2018    N        0.92678    0.95226    0.22201    1.000
    O2019    O        0.94813    0.99815    0.21749    1.000
    O2020    O        0.95177    0.02784    0.23236    1.000
    O2021    O        0.90684    0.97478    0.23983    1.000
    O2022    O        0.89428    0.00379    0.24139    1.000
    O2023    O        0.92255    0.92858    0.21066    1.000
    C2024    C        0.88067    0.01099    0.24553    1.000
    C2025    C        0.87779    0.00507    0.25571    1.000
    C2026    C        0.86356    0.98021    0.25725    1.000
    C2027    C        0.84176    0.97136    0.25218    1.000
    C2028    C        0.84589    0.97709    0.24204    1.000
    C2029    C        0.82447    0.96991    0.23682    1.000
    O2030    O        0.86763    0.01588    0.26007    1.000
    O2031    O        0.87451    0.96894    0.25412    1.000
    O2032    O        0.82880    0.94814    0.25337    1.000
    O2033    O        0.85968    0.00029    0.24121    1.000
    C2034    C        0.95556    0.04418    0.22571    1.000
    C2035    C        0.96707    0.06730    0.23004    1.000
    C2036    C        0.97346    0.08528    0.22270    1.000
    C2037    C        0.98652    0.08245    0.21482    1.000
    C2038    C        0.97505    0.05850    0.21130    1.000
    C2039    C        0.98899    0.05433    0.20440    1.000
    C2040    C        0.95802    0.07548    0.24531    1.000
    C2041    C        0.93954    0.07455    0.25100    1.000
    N2042    N        0.95262    0.06873    0.23687    1.000
    O2043    O        0.98581    0.10664    0.22671    1.000
    O2044    O        0.98866    0.09655    0.20739    1.000
    O2045    O        0.96956    0.04369    0.21880    1.000
    O2046    O        0.97760    0.03158    0.20197    1.000
    O2047    O        0.97667    0.08240    0.24872    1.000
    C2048    C        0.00899    0.11616    0.20588    1.000
    C2049    C        0.01251    0.12051    0.19555    1.000
    C2050    C        0.03329    0.14259    0.19383    1.000
    C2051    C        0.03117    0.16064    0.19865    1.000
    C2052    C        0.02768    0.15593    0.20884    1.000
    C2053    C        0.02449    0.17342    0.21364    1.000
    O2054    O        0.99420    0.12118    0.19156    1.000
    O2055    O        0.03500    0.14697    0.18436    1.000
    O2056    O        0.05024    0.18153    0.19708    1.000
    O2057    O        0.00887    0.13449    0.21014    1.000
    O2058    O        0.02180    0.16871    0.22311    1.000
    C2059    C        0.01647    0.18174    0.22879    1.000
    C2060    C        0.01843    0.17675    0.23877    1.000
    C2061    C        0.00034    0.15358    0.24164    1.000
    C2062    C        0.97740    0.14905    0.23905    1.000
    C2063    C        0.97681    0.15430    0.22897    1.000
    C2064    C        0.95485    0.15270    0.22666    1.000
    O2065    O        0.01832    0.19362    0.24408    1.000
    O2066    O        0.00135    0.15018    0.25117    1.000
    O2067    O        0.96165    0.12656    0.24078    1.000
    O2068    O        0.99423    0.17617    0.22716    1.000
    O2069    O        0.95144    0.16681    0.23258    1.000
    C2070    C        0.03955    0.21167    0.24596    1.000
    C2071    C        0.03795    0.23140    0.24940    1.000
    C2072    C        0.05995    0.24931    0.25322    1.000
    C2073    C        0.06726    0.23917    0.26077    1.000
    C2074    C        0.06951    0.22036    0.25672    1.000
    C2075    C        0.07645    0.20924    0.26389    1.000
    C2076    C        0.01473    0.24543    0.24380    1.000
    C2077    C        0.00835    0.25438    0.23566    1.000
    N2078    N        0.02983    0.24007    0.24229    1.000
    O2079    O        0.05700    0.26681    0.25650    1.000
    O2080    O        0.08815    0.25415    0.26461    1.000
    O2081    O        0.04901    0.20471    0.25288    1.000
    O2082    O        0.06105    0.20157    0.27121    1.000
    O2083    O        0.00637    0.24438    0.25145    1.000
    C2084    C        0.09302    0.27378    0.26946    1.000
    C2085    C        0.07808    0.27005    0.27772    1.000
    C2086    C        0.08564    0.29244    0.28214    1.000
    C2087    C        0.10979    0.30354    0.28507    1.000
    C2088    C        0.12462    0.30416    0.27727    1.000
    C2089    C        0.14733    0.30995    0.28079    1.000
    O2090    O        0.05542    0.26069    0.27536    1.000
    O2091    O        0.07208    0.29016    0.28978    1.000
    O2092    O        0.11167    0.29186    0.29259    1.000
    O2093    O        0.11495    0.28326    0.27292    1.000
    O2094    O        0.15803    0.33130    0.28484    1.000
    C2095    C        0.05481    0.15265    0.17963    1.000
    C2096    C        0.05383    0.16112    0.17014    1.000
    C2097    C        0.03513    0.14290    0.16462    1.000
    C2098    C        0.03797    0.12272    0.16415    1.000
    C2099    C        0.03974    0.11503    0.17370    1.000
    C2100    C        0.04593    0.09704    0.17328    1.000
    O2101    O        0.07403    0.16732    0.16558    1.000
    O2102    O        0.03482    0.15055    0.15565    1.000
    O2103    O        0.02025    0.10530    0.15929    1.000
    O2104    O        0.05644    0.13340    0.17851    1.000
    O2105    O        0.06589    0.10495    0.16826    1.000
    C2106    C        0.09096    0.18977    0.16550    1.000
    C2107    C        0.08373    0.20258    0.15934    1.000
    C2108    C        0.09881    0.22739    0.16035    1.000
    C2109    C        0.10069    0.23401    0.17038    1.000
    C2110    C        0.10838    0.22103    0.17618    1.000
    C2111    C        0.10773    0.22549    0.18635    1.000
    C2112    C        0.06687    0.19187    0.14430    1.000
    C2113    C        0.06893    0.18492    0.13473    1.000
    N2114    N        0.08311    0.19605    0.14984    1.000
    O2115    O        0.09034    0.23866    0.15514    1.000
    O2116    O        0.11537    0.25703    0.17142    1.000
    O2117    O        0.09394    0.19825    0.17454    1.000
    O2118    O        0.08585    0.21961    0.18886    1.000
    O2119    O        0.05029    0.19301    0.14652    1.000
    S2120    S        0.29161    0.37997    0.34295    1.000
    O2121    O        0.26781    0.36118    0.34265    1.000
    O2122    O        0.29807    0.38821    0.35257    1.000
    O2123    O        0.30694    0.37242    0.33948    1.000
    O2124    O        0.29431    0.39896    0.33720    1.000
